<?xml version="1.0" encoding="UTF-8"?>

<!-- generated on 2026-01-22 00:13:42 by Eclipse SUMO netedit Version 1.24.0
-->

<routes xmlns:xsi="http://www.w3.org/2001/XMLSchema-instance" xsi:noNamespaceSchemaLocation="http://sumo.dlr.de/xsd/routes_file.xsd">
    <!-- VTypes -->
    <vType id="Car0" length="5.00" maxSpeed="11.92" vClass="passenger" color="green"/>
    <vType id="Car1" length="5.00" maxSpeed="12.82" vClass="passenger" color="green"/>
    <vType id="Car10" length="5.00" maxSpeed="13.27" vClass="passenger" color="green"/>
    <vType id="Car11" length="5.00" maxSpeed="5.82" vClass="passenger" color="green"/>
    <vType id="Car12" length="5.00" maxSpeed="8.61" vClass="passenger" color="green"/>
    <vType id="Car13" length="5.00" maxSpeed="11.67" vClass="passenger" color="green"/>
    <vType id="Car14" length="5.00" maxSpeed="14.06" vClass="passenger" color="green"/>
    <vType id="Car2" length="5.00" maxSpeed="7.62" vClass="passenger" color="green"/>
    <vType id="Car3" length="5.00" maxSpeed="11.39" vClass="passenger" color="green"/>
    <vType id="Car4" length="5.00" maxSpeed="12.50" vClass="passenger" color="green"/>
    <vType id="Car5" length="5.00" maxSpeed="13.72" vClass="passenger" color="green"/>
    <vType id="Car6" length="5.00" maxSpeed="14.51" vClass="passenger" color="green"/>
    <vType id="Car7" length="5.00" maxSpeed="13.55" vClass="passenger" color="green"/>
    <vType id="Car8" length="5.00" maxSpeed="12.60" vClass="passenger" color="green"/>
    <vType id="Car9" length="5.00" maxSpeed="9.32" vClass="passenger" color="green"/>
    <!-- Vehicles, persons and containers (sorted by depart) -->
    <vehicle id="Flow0.0" type="Car0" depart="0.00" fromTaz="cluster_623980090_623980094" toTaz="cluster619136899_619136900_cluster_619136929_619136942">
        <route edges="196961215#2 288878926#0 593849715 49073272#0 49073272#1 49073272#3 49073272#4"/>
    </vehicle>
    <vehicle id="Flow1.0" type="Car1" depart="0.00" fromTaz="cluster619136899_619136900_cluster_619136929_619136942" toTaz="cluster619136880_619136881_cluster_4510442270_5296993511_5296993513_619136931_#1more">
        <route edges="668037874"/>
    </vehicle>
    <vehicle id="Flow11.0" type="Car11" depart="0.00" fromTaz="cluster_623980147_623980152" toTaz="622618230">
        <route edges="288878926#0"/>
    </vehicle>
    <vehicle id="Flow12.0" type="Car12" depart="0.00" fromTaz="cluster_9383263990_9383263991_9383263992_9383263993" toTaz="cluster_2038168688_655375573">
        <route edges="506322842#0"/>
    </vehicle>
    <vehicle id="Flow13.0" type="Car13" depart="0.00" fromTaz="cluster619136899_619136900_cluster_619136929_619136942" toTaz="cluster619136880_619136881_cluster_4510442270_5296993511_5296993513_619136931_#1more">
        <route edges="668037874"/>
    </vehicle>
    <vehicle id="Flow14.0" type="Car14" depart="0.00" fromTaz="655375241" toTaz="655375241">
        <route edges="-1334905223#2 263217603#0 506322840#0"/>
    </vehicle>
    <vehicle id="Flow3.0" type="Car3" depart="0.00" fromTaz="cluster_3431431575_4777363357_655375231_6982059025" toTaz="cluster_2528018119_655375236">
        <route edges="51362429#0 593847701 593847705 593847703#0"/>
    </vehicle>
    <vehicle id="Flow4.0" type="Car4" depart="0.00" fromTaz="cluster_2528018119_655375236" toTaz="655375233">
        <route edges="182334378#0 1068440004#1"/>
    </vehicle>
    <vehicle id="Flow5.0" type="Car5" depart="0.00" fromTaz="cluster_623980090_623980094" toTaz="622618112">
        <route edges="196961215#2 288878926#0 593849715 49073272#0"/>
    </vehicle>
    <vehicle id="Flow6.0" type="Car6" depart="0.00" fromTaz="cluster_5372642442_631668976_631668981_631669076" toTaz="cluster619136899_619136900_cluster_619136929_619136942">
        <route edges="506322851#0 506322851#2 506322853#0"/>
    </vehicle>
    <vehicle id="Flow7.0" type="Car7" depart="0.00" fromTaz="cluster619136880_619136881_cluster_4510442270_5296993511_5296993513_619136931_#1more" toTaz="cluster655375336_end_0_655375336_end_1_655375336_end_10_655375336_end_11_#8more">
        <route edges="196961377#0 196961377#3 593849721 -593849724 -593847704#2 E0"/>
    </vehicle>
    <vehicle id="Flow8.0" type="Car8" depart="0.00" fromTaz="cluster_5372642442_631668976_631668981_631669076" toTaz="cluster_5372642442_631668976_631668981_631669076">
        <route edges="238526531#0 506322848#0 506322844#0 -300077497#8 35274074#0 506322846#0 506322846#2"/>
    </vehicle>
    <vehicle id="Flow9.0" type="Car9" depart="0.00" fromTaz="622618230" toTaz="655375232">
        <route edges="593849715 -593847704#2 -593847701"/>
    </vehicle>
    <vehicle id="Flow6.1" type="Car6" depart="1.97" fromTaz="cluster_5372642442_631668976_631668981_631669076" toTaz="cluster619136899_619136900_cluster_619136929_619136942">
        <route edges="506322851#0 506322851#2 506322853#0"/>
    </vehicle>
    <vehicle id="Flow7.1" type="Car7" depart="2.08" fromTaz="cluster619136880_619136881_cluster_4510442270_5296993511_5296993513_619136931_#1more" toTaz="cluster655375336_end_0_655375336_end_1_655375336_end_10_655375336_end_11_#8more">
        <route edges="196961377#0 196961377#3 593849721 49073274 593852346 593849715 -593847704#2 E0"/>
    </vehicle>
    <vehicle id="Flow14.1" type="Car14" depart="2.21" fromTaz="655375241" toTaz="655375241">
        <route edges="-1334905223#2 263217603#0 506322840#0"/>
    </vehicle>
    <vehicle id="Flow9.1" type="Car9" depart="2.40" fromTaz="622618230" toTaz="655375232">
        <route edges="593849711#0 593849711#2"/>
    </vehicle>
    <vehicle id="Flow12.1" type="Car12" depart="2.50" fromTaz="cluster_9383263990_9383263991_9383263992_9383263993" toTaz="cluster_2038168688_655375573">
        <route edges="506322842#0"/>
    </vehicle>
    <vehicle id="Flow5.1" type="Car5" depart="2.61" fromTaz="cluster_623980090_623980094" toTaz="622618112">
        <route edges="196961215#2 288878926#0 593849715 49073272#0"/>
    </vehicle>
    <vehicle id="Flow8.1" type="Car8" depart="2.78" fromTaz="cluster_5372642442_631668976_631668981_631669076" toTaz="cluster_5372642442_631668976_631668981_631669076">
        <route edges="238526531#0 -35274074#2 -300077497#5 182334379#0"/>
    </vehicle>
    <vehicle id="Flow1.1" type="Car1" depart="3.49" fromTaz="cluster619136899_619136900_cluster_619136929_619136942" toTaz="cluster619136880_619136881_cluster_4510442270_5296993511_5296993513_619136931_#1more">
        <route edges="668037874"/>
    </vehicle>
    <vehicle id="Flow2.2" type="Car2" depart="3.64" fromTaz="cluster_2664674491_655375287_655375288" toTaz="cluster_9383263990_9383263991_9383263992_9383263993">
        <route edges="244450512#4 244450512#5 593844221#0 49695736#0 300077497#0 35274074#0 506322848#0"/>
    </vehicle>
    <vehicle id="Flow13.1" type="Car13" depart="3.90" fromTaz="cluster619136899_619136900_cluster_619136929_619136942" toTaz="cluster619136880_619136881_cluster_4510442270_5296993511_5296993513_619136931_#1more">
        <route edges="668037874"/>
    </vehicle>
    <vehicle id="Flow0.1" type="Car0" depart="3.95" fromTaz="cluster_623980090_623980094" toTaz="cluster619136899_619136900_cluster_619136929_619136942">
        <route edges="196961215#2 288878926#0 593849715 49073272#0 49073272#1 49073272#3 49073272#4"/>
    </vehicle>
    <vehicle id="Flow6.2" type="Car6" depart="3.95" fromTaz="cluster_5372642442_631668976_631668981_631669076" toTaz="cluster619136899_619136900_cluster_619136929_619136942">
        <route edges="506322851#0 506322851#2 506322853#0"/>
    </vehicle>
    <vehicle id="Flow7.2" type="Car7" depart="4.17" fromTaz="cluster619136880_619136881_cluster_4510442270_5296993511_5296993513_619136931_#1more" toTaz="cluster655375336_end_0_655375336_end_1_655375336_end_10_655375336_end_11_#8more">
        <route edges="196961377#0 196961377#3 593849721 49073274 593852346 593849711#0 593849711#2 1068440006#0"/>
    </vehicle>
    <vehicle id="Flow14.2" type="Car14" depart="4.41" fromTaz="655375241" toTaz="655375241">
        <route edges="-1334905223#2 263217603#0 506322840#0"/>
    </vehicle>
    <vehicle id="Flow9.2" type="Car9" depart="4.80" fromTaz="622618230" toTaz="655375232">
        <route edges="593849711#0 593849711#2"/>
    </vehicle>
    <vehicle id="Flow12.2" type="Car12" depart="5.00" fromTaz="cluster_9383263990_9383263991_9383263992_9383263993" toTaz="cluster_2038168688_655375573">
        <route edges="506322842#0"/>
    </vehicle>
    <vehicle id="Flow3.1" type="Car3" depart="5.17" fromTaz="cluster_3431431575_4777363357_655375231_6982059025" toTaz="cluster_2528018119_655375236">
        <route edges="51362429#0 593847701 593847705 593847703#0"/>
    </vehicle>
    <vehicle id="Flow5.2" type="Car5" depart="5.22" fromTaz="cluster_623980090_623980094" toTaz="622618112">
        <route edges="196961215#2 288878926#0 593849715 49073272#0"/>
    </vehicle>
    <vehicle id="Flow2.3" type="Car2" depart="5.45" fromTaz="cluster_2664674491_655375287_655375288" toTaz="cluster_9383263990_9383263991_9383263992_9383263993">
        <route edges="244450512#4 244450512#5 593844221#0 49695736#0 182334379#0 238526531#0 506322848#0"/>
    </vehicle>
    <vehicle id="Flow8.2" type="Car8" depart="5.55" fromTaz="cluster_5372642442_631668976_631668981_631669076" toTaz="cluster_5372642442_631668976_631668981_631669076">
        <route edges="238526531#0 -35274074#2 -300077497#5 182334379#0"/>
    </vehicle>
    <vehicle id="Flow6.3" type="Car6" depart="5.92" fromTaz="cluster_5372642442_631668976_631668981_631669076" toTaz="cluster619136899_619136900_cluster_619136929_619136942">
        <route edges="506322851#0 506322851#2 506322853#0"/>
    </vehicle>
    <vehicle id="Flow7.3" type="Car7" depart="6.25" fromTaz="cluster619136880_619136881_cluster_4510442270_5296993511_5296993513_619136931_#1more" toTaz="cluster655375336_end_0_655375336_end_1_655375336_end_10_655375336_end_11_#8more">
        <route edges="196961377#0 196961377#3 593849721 -593849724 -593847704#2 E0"/>
    </vehicle>
    <vehicle id="Flow14.3" type="Car14" depart="6.62" fromTaz="655375241" toTaz="655375241">
        <route edges="-1334905223#2 263217603#0 506322840#0"/>
    </vehicle>
    <vehicle id="Flow1.2" type="Car1" depart="6.98" fromTaz="cluster619136899_619136900_cluster_619136929_619136942" toTaz="cluster619136880_619136881_cluster_4510442270_5296993511_5296993513_619136931_#1more">
        <route edges="668037874"/>
    </vehicle>
    <vehicle id="Flow9.3" type="Car9" depart="7.20" fromTaz="622618230" toTaz="655375232">
        <route edges="593849711#0 593849711#2"/>
    </vehicle>
    <vehicle id="Flow11.1" type="Car11" depart="7.50" fromTaz="cluster_623980147_623980152" toTaz="622618230">
        <route edges="288878926#0"/>
    </vehicle>
    <vehicle id="Flow12.3" type="Car12" depart="7.50" fromTaz="cluster_9383263990_9383263991_9383263992_9383263993" toTaz="cluster_2038168688_655375573">
        <route edges="506322842#0"/>
    </vehicle>
    <vehicle id="Flow13.2" type="Car13" depart="7.79" fromTaz="cluster619136899_619136900_cluster_619136929_619136942" toTaz="cluster619136880_619136881_cluster_4510442270_5296993511_5296993513_619136931_#1more">
        <route edges="668037874"/>
    </vehicle>
    <vehicle id="Flow5.3" type="Car5" depart="7.82" fromTaz="cluster_623980090_623980094" toTaz="622618112">
        <route edges="196961215#2 288878926#0 593849715 49073272#0"/>
    </vehicle>
    <vehicle id="Flow0.2" type="Car0" depart="7.89" fromTaz="cluster_623980090_623980094" toTaz="cluster619136899_619136900_cluster_619136929_619136942">
        <route edges="196961215#2 288878926#0 593849715 49073272#0 49073272#1 49073272#3 49073272#4"/>
    </vehicle>
    <vehicle id="Flow6.4" type="Car6" depart="7.89" fromTaz="cluster_5372642442_631668976_631668981_631669076" toTaz="cluster619136899_619136900_cluster_619136929_619136942">
        <route edges="506322851#0 506322851#2 506322853#0"/>
    </vehicle>
    <vehicle id="Flow7.4" type="Car7" depart="8.33" fromTaz="cluster619136880_619136881_cluster_4510442270_5296993511_5296993513_619136931_#1more" toTaz="cluster655375336_end_0_655375336_end_1_655375336_end_10_655375336_end_11_#8more">
        <route edges="910567294 353392316#0 288135626#0 1068234499#0 182334378#0"/>
    </vehicle>
    <vehicle id="Flow14.4" type="Car14" depart="8.82" fromTaz="655375241" toTaz="655375241">
        <route edges="-1334905223#2 263217603#0 506322840#0"/>
    </vehicle>
    <vehicle id="Flow2.5" type="Car2" depart="9.09" fromTaz="cluster_2664674491_655375287_655375288" toTaz="cluster_9383263990_9383263991_9383263992_9383263993">
        <route edges="244450512#4 244450512#5 593844221#0 49695736#0 182334379#0 238526531#0 506322848#0"/>
    </vehicle>
    <vehicle id="Flow9.4" type="Car9" depart="9.60" fromTaz="622618230" toTaz="655375232">
        <route edges="593849711#0 593849711#2"/>
    </vehicle>
    <vehicle id="Flow6.5" type="Car6" depart="9.87" fromTaz="cluster_5372642442_631668976_631668981_631669076" toTaz="cluster619136899_619136900_cluster_619136929_619136942">
        <route edges="506322851#0 506322851#2 506322853#0"/>
    </vehicle>
    <vehicle id="Flow12.4" type="Car12" depart="10.00" fromTaz="cluster_9383263990_9383263991_9383263992_9383263993" toTaz="cluster_2038168688_655375573">
        <route edges="506322844#0 -300077497#8 35274074#0"/>
    </vehicle>
    <vehicle id="Flow3.2" type="Car3" depart="10.34" fromTaz="cluster_3431431575_4777363357_655375231_6982059025" toTaz="cluster_2528018119_655375236">
        <route edges="51362429#0 593847701 593847705 593847703#0"/>
    </vehicle>
    <vehicle id="Flow7.5" type="Car7" depart="10.42" fromTaz="cluster619136880_619136881_cluster_4510442270_5296993511_5296993513_619136931_#1more" toTaz="cluster655375336_end_0_655375336_end_1_655375336_end_10_655375336_end_11_#8more">
        <route edges="196961377#0 196961377#3 593849721 49073274 593852346 593849711#0 593849711#2 593847701 E0"/>
    </vehicle>
    <vehicle id="Flow5.4" type="Car5" depart="10.43" fromTaz="cluster_623980090_623980094" toTaz="622618112">
        <route edges="196961215#2 288878926#0 593849715 49073272#0"/>
    </vehicle>
    <vehicle id="Flow1.3" type="Car1" depart="10.46" fromTaz="cluster619136899_619136900_cluster_619136929_619136942" toTaz="cluster619136880_619136881_cluster_4510442270_5296993511_5296993513_619136931_#1more">
        <route edges="668037874"/>
    </vehicle>
    <vehicle id="Flow14.5" type="Car14" depart="11.03" fromTaz="655375241" toTaz="655375241">
        <route edges="-1334905223#2 263217603#0 506322840#0"/>
    </vehicle>
    <vehicle id="Flow8.4" type="Car8" depart="11.11" fromTaz="cluster_5372642442_631668976_631668981_631669076" toTaz="cluster_5372642442_631668976_631668981_631669076">
        <route edges="238526531#0 -35274074#2 -300077497#5 182334379#0"/>
    </vehicle>
    <vehicle id="Flow13.3" type="Car13" depart="11.69" fromTaz="cluster619136899_619136900_cluster_619136929_619136942" toTaz="cluster619136880_619136881_cluster_4510442270_5296993511_5296993513_619136931_#1more">
        <route edges="668037874"/>
    </vehicle>
    <vehicle id="Flow0.3" type="Car0" depart="11.84" fromTaz="cluster_623980090_623980094" toTaz="cluster619136899_619136900_cluster_619136929_619136942">
        <route edges="196961215#2 288878926#0 593849715 49073272#0 49073272#1 49073272#3 49073272#4"/>
    </vehicle>
    <vehicle id="Flow6.6" type="Car6" depart="11.84" fromTaz="cluster_5372642442_631668976_631668981_631669076" toTaz="cluster619136899_619136900_cluster_619136929_619136942">
        <route edges="506322851#0 506322851#2 506322853#0"/>
    </vehicle>
    <vehicle id="Flow9.5" type="Car9" depart="12.00" fromTaz="622618230" toTaz="655375232">
        <route edges="593849715 -593847704#2 -593847701"/>
    </vehicle>
    <vehicle id="Flow12.5" type="Car12" depart="12.50" fromTaz="cluster_9383263990_9383263991_9383263992_9383263993" toTaz="cluster_2038168688_655375573">
        <route edges="506322842#0"/>
    </vehicle>
    <vehicle id="Flow7.6" type="Car7" depart="12.50" fromTaz="cluster619136880_619136881_cluster_4510442270_5296993511_5296993513_619136931_#1more" toTaz="cluster655375336_end_0_655375336_end_1_655375336_end_10_655375336_end_11_#8more">
        <route edges="910567294 353392316#0 288135626#0 1068234499#0 182334378#0"/>
    </vehicle>
    <vehicle id="Flow5.5" type="Car5" depart="13.04" fromTaz="cluster_623980090_623980094" toTaz="622618112">
        <route edges="196961215#2 288878926#0 593849715 49073272#0"/>
    </vehicle>
    <vehicle id="Flow14.6" type="Car14" depart="13.23" fromTaz="655375241" toTaz="655375241">
        <route edges="-1334905223#2 263217603#0 506322840#0"/>
    </vehicle>
    <vehicle id="Flow6.7" type="Car6" depart="13.81" fromTaz="cluster_5372642442_631668976_631668981_631669076" toTaz="cluster619136899_619136900_cluster_619136929_619136942">
        <route edges="506322851#0 506322851#2 506322853#0"/>
    </vehicle>
    <vehicle id="Flow8.5" type="Car8" depart="13.89" fromTaz="cluster_5372642442_631668976_631668981_631669076" toTaz="cluster_5372642442_631668976_631668981_631669076">
        <route edges="238526531#0 -35274074#2 -300077497#5 182334379#0"/>
    </vehicle>
    <vehicle id="Flow1.4" type="Car1" depart="13.95" fromTaz="cluster619136899_619136900_cluster_619136929_619136942" toTaz="cluster619136880_619136881_cluster_4510442270_5296993511_5296993513_619136931_#1more">
        <route edges="668037874"/>
    </vehicle>
    <vehicle id="Flow9.6" type="Car9" depart="14.40" fromTaz="622618230" toTaz="655375232">
        <route edges="593849711#0 593849711#2"/>
    </vehicle>
    <vehicle id="Flow7.7" type="Car7" depart="14.58" fromTaz="cluster619136880_619136881_cluster_4510442270_5296993511_5296993513_619136931_#1more" toTaz="cluster655375336_end_0_655375336_end_1_655375336_end_10_655375336_end_11_#8more">
        <route edges="196961377#0 196961377#3 593849721 -593849724 -593847704#2 E0"/>
    </vehicle>
    <vehicle id="Flow11.2" type="Car11" depart="15.00" fromTaz="cluster_623980147_623980152" toTaz="622618230">
        <route edges="288878926#0"/>
    </vehicle>
    <vehicle id="Flow12.6" type="Car12" depart="15.00" fromTaz="cluster_9383263990_9383263991_9383263992_9383263993" toTaz="cluster_2038168688_655375573">
        <route edges="506322842#0"/>
    </vehicle>
    <vehicle id="Flow14.7" type="Car14" depart="15.44" fromTaz="655375241" toTaz="655375241">
        <route edges="-1334905223#2 263217603#0 506322840#0"/>
    </vehicle>
    <vehicle id="Flow3.3" type="Car3" depart="15.52" fromTaz="cluster_3431431575_4777363357_655375231_6982059025" toTaz="cluster_2528018119_655375236">
        <route edges="51362429#0 593847701 593847705 593847703#0"/>
    </vehicle>
    <vehicle id="Flow13.4" type="Car13" depart="15.58" fromTaz="cluster619136899_619136900_cluster_619136929_619136942" toTaz="cluster619136880_619136881_cluster_4510442270_5296993511_5296993513_619136931_#1more">
        <route edges="668037874"/>
    </vehicle>
    <vehicle id="Flow5.6" type="Car5" depart="15.65" fromTaz="cluster_623980090_623980094" toTaz="622618112">
        <route edges="196961215#2 288878926#0 593849715 49073272#0"/>
    </vehicle>
    <vehicle id="Flow6.8" type="Car6" depart="15.78" fromTaz="cluster_5372642442_631668976_631668981_631669076" toTaz="cluster619136899_619136900_cluster_619136929_619136942">
        <route edges="506322851#0 506322851#2 506322853#0"/>
    </vehicle>
    <vehicle id="Flow0.4" type="Car0" depart="15.79" fromTaz="cluster_623980090_623980094" toTaz="cluster619136899_619136900_cluster_619136929_619136942">
        <route edges="196961215#2 288878926#0 593849715 49073272#0 49073272#1 49073272#3 49073272#4"/>
    </vehicle>
    <vehicle id="Flow7.8" type="Car7" depart="16.66" fromTaz="cluster619136880_619136881_cluster_4510442270_5296993511_5296993513_619136931_#1more" toTaz="cluster655375336_end_0_655375336_end_1_655375336_end_10_655375336_end_11_#8more">
        <route edges="196961377#0 196961377#3 593849721 -593849724 -593847704#2 E0"/>
    </vehicle>
    <vehicle id="Flow8.6" type="Car8" depart="16.66" fromTaz="cluster_5372642442_631668976_631668981_631669076" toTaz="cluster_5372642442_631668976_631668981_631669076">
        <route edges="238526531#0 -35274074#2 -300077497#5 182334379#0"/>
    </vehicle>
    <vehicle id="Flow9.7" type="Car9" depart="16.80" fromTaz="622618230" toTaz="655375232">
        <route edges="593849715 -593847704#2 -593847701"/>
    </vehicle>
    <vehicle id="Flow1.5" type="Car1" depart="17.44" fromTaz="cluster619136899_619136900_cluster_619136929_619136942" toTaz="cluster619136880_619136881_cluster_4510442270_5296993511_5296993513_619136931_#1more">
        <route edges="668037874"/>
    </vehicle>
    <vehicle id="Flow12.7" type="Car12" depart="17.50" fromTaz="cluster_9383263990_9383263991_9383263992_9383263993" toTaz="cluster_2038168688_655375573">
        <route edges="506322842#0"/>
    </vehicle>
    <vehicle id="Flow14.8" type="Car14" depart="17.64" fromTaz="655375241" toTaz="655375241">
        <route edges="-1334905223#2 263217603#0 506322840#0"/>
    </vehicle>
    <vehicle id="Flow6.9" type="Car6" depart="17.76" fromTaz="cluster_5372642442_631668976_631668981_631669076" toTaz="cluster619136899_619136900_cluster_619136929_619136942">
        <route edges="506322851#0 506322851#2 506322853#0"/>
    </vehicle>
    <vehicle id="Flow5.7" type="Car5" depart="18.26" fromTaz="cluster_623980090_623980094" toTaz="622618112">
        <route edges="196961215#2 288878926#0 593849715 49073272#0"/>
    </vehicle>
    <vehicle id="Flow7.9" type="Car7" depart="18.75" fromTaz="cluster619136880_619136881_cluster_4510442270_5296993511_5296993513_619136931_#1more" toTaz="cluster655375336_end_0_655375336_end_1_655375336_end_10_655375336_end_11_#8more">
        <route edges="196961377#0 196961377#3 593849721 -593849724 -593847704#2 E0"/>
    </vehicle>
    <vehicle id="Flow9.8" type="Car9" depart="19.20" fromTaz="622618230" toTaz="655375232">
        <route edges="593849711#0 593849711#2"/>
    </vehicle>
    <vehicle id="Flow8.7" type="Car8" depart="19.44" fromTaz="cluster_5372642442_631668976_631668981_631669076" toTaz="cluster_5372642442_631668976_631668981_631669076">
        <route edges="238526531#0 506322848#0 506322844#0 -300077497#8 -300077497#5 182334379#0"/>
    </vehicle>
    <vehicle id="Flow13.5" type="Car13" depart="19.48" fromTaz="cluster619136899_619136900_cluster_619136929_619136942" toTaz="cluster619136880_619136881_cluster_4510442270_5296993511_5296993513_619136931_#1more">
        <route edges="668037874"/>
    </vehicle>
    <vehicle id="Flow6.10" type="Car6" depart="19.73" fromTaz="cluster_5372642442_631668976_631668981_631669076" toTaz="cluster619136899_619136900_cluster_619136929_619136942">
        <route edges="506322851#0 506322851#2 506322853#0"/>
    </vehicle>
    <vehicle id="Flow0.5" type="Car0" depart="19.74" fromTaz="cluster_623980090_623980094" toTaz="cluster619136899_619136900_cluster_619136929_619136942">
        <route edges="196961215#2 288878926#0 593849715 49073272#0 49073272#1 49073272#3 49073272#4"/>
    </vehicle>
    <vehicle id="Flow14.9" type="Car14" depart="19.85" fromTaz="655375241" toTaz="655375241">
        <route edges="-1334905223#2 263217603#0 506322840#0"/>
    </vehicle>
    <vehicle id="Flow12.8" type="Car12" depart="20.00" fromTaz="cluster_9383263990_9383263991_9383263992_9383263993" toTaz="cluster_2038168688_655375573">
        <route edges="506322842#0"/>
    </vehicle>
    <vehicle id="Flow3.4" type="Car3" depart="20.69" fromTaz="cluster_3431431575_4777363357_655375231_6982059025" toTaz="cluster_2528018119_655375236">
        <route edges="51362429#0 593847701 593847705 593847703#0"/>
    </vehicle>
    <vehicle id="Flow7.10" type="Car7" depart="20.83" fromTaz="cluster619136880_619136881_cluster_4510442270_5296993511_5296993513_619136931_#1more" toTaz="cluster655375336_end_0_655375336_end_1_655375336_end_10_655375336_end_11_#8more">
        <route edges="196961377#0 196961377#3 593849721 -593849724 -593847704#2 E0"/>
    </vehicle>
    <vehicle id="Flow5.8" type="Car5" depart="20.86" fromTaz="cluster_623980090_623980094" toTaz="622618112">
        <route edges="196961215#2 288878926#0 593849715 49073272#0"/>
    </vehicle>
    <vehicle id="Flow1.6" type="Car1" depart="20.93" fromTaz="cluster619136899_619136900_cluster_619136929_619136942" toTaz="cluster619136880_619136881_cluster_4510442270_5296993511_5296993513_619136931_#1more">
        <route edges="668037874"/>
    </vehicle>
    <vehicle id="Flow9.9" type="Car9" depart="21.60" fromTaz="622618230" toTaz="655375232">
        <route edges="593849711#0 593849711#2"/>
    </vehicle>
    <vehicle id="Flow6.11" type="Car6" depart="21.70" fromTaz="cluster_5372642442_631668976_631668981_631669076" toTaz="cluster619136899_619136900_cluster_619136929_619136942">
        <route edges="506322851#0 506322851#2 506322853#0"/>
    </vehicle>
    <vehicle id="Flow14.10" type="Car14" depart="22.05" fromTaz="655375241" toTaz="655375241">
        <route edges="-1334905223#2 263217603#0 506322840#0"/>
    </vehicle>
    <vehicle id="Flow11.3" type="Car11" depart="22.50" fromTaz="cluster_623980147_623980152" toTaz="622618230">
        <route edges="288878926#0"/>
    </vehicle>
    <vehicle id="Flow12.9" type="Car12" depart="22.50" fromTaz="cluster_9383263990_9383263991_9383263992_9383263993" toTaz="cluster_2038168688_655375573">
        <route edges="506322842#0"/>
    </vehicle>
    <vehicle id="Flow7.11" type="Car7" depart="22.91" fromTaz="cluster619136880_619136881_cluster_4510442270_5296993511_5296993513_619136931_#1more" toTaz="cluster655375336_end_0_655375336_end_1_655375336_end_10_655375336_end_11_#8more">
        <route edges="196961377#0 196961377#3 593849721 -593849724 -593847704#2 E0"/>
    </vehicle>
    <vehicle id="Flow13.6" type="Car13" depart="23.38" fromTaz="cluster619136899_619136900_cluster_619136929_619136942" toTaz="cluster619136880_619136881_cluster_4510442270_5296993511_5296993513_619136931_#1more">
        <route edges="668037874"/>
    </vehicle>
    <vehicle id="Flow5.9" type="Car5" depart="23.47" fromTaz="cluster_623980090_623980094" toTaz="622618112">
        <route edges="196961215#2 288878926#0 593849715 49073272#0"/>
    </vehicle>
    <vehicle id="Flow0.6" type="Car0" depart="23.68" fromTaz="cluster_623980090_623980094" toTaz="cluster619136899_619136900_cluster_619136929_619136942">
        <route edges="196961215#2 288878926#0 593849715 49073272#0 49073272#1 49073272#3 49073272#4"/>
    </vehicle>
    <vehicle id="Flow6.12" type="Car6" depart="23.68" fromTaz="cluster_5372642442_631668976_631668981_631669076" toTaz="cluster619136899_619136900_cluster_619136929_619136942">
        <route edges="506322851#0 506322851#2 506322853#0"/>
    </vehicle>
    <vehicle id="Flow9.10" type="Car9" depart="24.00" fromTaz="622618230" toTaz="655375232">
        <route edges="593849711#0 593849711#2"/>
    </vehicle>
    <vehicle id="Flow14.11" type="Car14" depart="24.26" fromTaz="655375241" toTaz="655375241">
        <route edges="-1334905223#2 263217603#0 506322840#0"/>
    </vehicle>
    <vehicle id="Flow1.7" type="Car1" depart="24.42" fromTaz="cluster619136899_619136900_cluster_619136929_619136942" toTaz="cluster619136880_619136881_cluster_4510442270_5296993511_5296993513_619136931_#1more">
        <route edges="668037874"/>
    </vehicle>
    <vehicle id="Flow8.9" type="Car8" depart="24.99" fromTaz="cluster_5372642442_631668976_631668981_631669076" toTaz="cluster_5372642442_631668976_631668981_631669076">
        <route edges="238526531#0 506322848#0 506322841#1 182336886 30620492#1 506322842#0 506322846#0 506322846#2"/>
    </vehicle>
    <vehicle id="Flow12.10" type="Car12" depart="25.00" fromTaz="cluster_9383263990_9383263991_9383263992_9383263993" toTaz="cluster_2038168688_655375573">
        <route edges="506322842#0"/>
    </vehicle>
    <vehicle id="Flow4.1" type="Car4" depart="25.00" fromTaz="cluster_2528018119_655375236" toTaz="655375233">
        <route edges="-593847703#3"/>
    </vehicle>
    <vehicle id="Flow7.12" type="Car7" depart="25.00" fromTaz="cluster619136880_619136881_cluster_4510442270_5296993511_5296993513_619136931_#1more" toTaz="cluster655375336_end_0_655375336_end_1_655375336_end_10_655375336_end_11_#8more">
        <route edges="196961377#0 196961377#3 593849721 49073274 593852346 593849711#0 593849711#2 593847701 E0"/>
    </vehicle>
    <vehicle id="Flow6.13" type="Car6" depart="25.65" fromTaz="cluster_5372642442_631668976_631668981_631669076" toTaz="cluster619136899_619136900_cluster_619136929_619136942">
        <route edges="506322851#0 506322851#2 506322853#0"/>
    </vehicle>
    <vehicle id="Flow3.5" type="Car3" depart="25.86" fromTaz="cluster_3431431575_4777363357_655375231_6982059025" toTaz="cluster_2528018119_655375236">
        <route edges="51362429#0 593847701 593847705 593847703#0"/>
    </vehicle>
    <vehicle id="Flow5.10" type="Car5" depart="26.08" fromTaz="cluster_623980090_623980094" toTaz="622618112">
        <route edges="196961215#2 288878926#0 593849715 49073272#0"/>
    </vehicle>
    <vehicle id="Flow9.11" type="Car9" depart="26.40" fromTaz="622618230" toTaz="655375232">
        <route edges="593849711#0 593849711#2"/>
    </vehicle>
    <vehicle id="Flow14.12" type="Car14" depart="26.46" fromTaz="655375241" toTaz="655375241">
        <route edges="-1334905223#2 263217603#0 506322840#0"/>
    </vehicle>
    <vehicle id="Flow7.13" type="Car7" depart="27.08" fromTaz="cluster619136880_619136881_cluster_4510442270_5296993511_5296993513_619136931_#1more" toTaz="cluster655375336_end_0_655375336_end_1_655375336_end_10_655375336_end_11_#8more">
        <route edges="196961377#0 196961377#3 593849721 49073274 593852346 593849711#0 593849711#2 593847701 E0"/>
    </vehicle>
    <vehicle id="Flow13.7" type="Car13" depart="27.27" fromTaz="cluster619136899_619136900_cluster_619136929_619136942" toTaz="cluster619136880_619136881_cluster_4510442270_5296993511_5296993513_619136931_#1more">
        <route edges="668037874"/>
    </vehicle>
    <vehicle id="Flow2.15" type="Car2" depart="27.27" fromTaz="cluster_2664674491_655375287_655375288" toTaz="cluster_9383263990_9383263991_9383263992_9383263993">
        <route edges="244450512#4 244450512#5 593844221#0 49695736#0 182334379#0 238526531#0 506322848#0"/>
    </vehicle>
    <vehicle id="Flow12.11" type="Car12" depart="27.50" fromTaz="cluster_9383263990_9383263991_9383263992_9383263993" toTaz="cluster_2038168688_655375573">
        <route edges="506322842#0"/>
    </vehicle>
    <vehicle id="Flow6.14" type="Car6" depart="27.62" fromTaz="cluster_5372642442_631668976_631668981_631669076" toTaz="cluster619136899_619136900_cluster_619136929_619136942">
        <route edges="506322851#0 506322851#2 506322853#0"/>
    </vehicle>
    <vehicle id="Flow0.7" type="Car0" depart="27.63" fromTaz="cluster_623980090_623980094" toTaz="cluster619136899_619136900_cluster_619136929_619136942">
        <route edges="196961215#2 288878926#0 593849715 49073272#0 49073272#1 49073272#3 49073272#4"/>
    </vehicle>
    <vehicle id="Flow8.10" type="Car8" depart="27.77" fromTaz="cluster_5372642442_631668976_631668981_631669076" toTaz="cluster_5372642442_631668976_631668981_631669076">
        <route edges="288135626#0 1068234499#0 300077497#0 35274074#0 506322846#0 506322846#2"/>
    </vehicle>
    <vehicle id="Flow1.8" type="Car1" depart="27.90" fromTaz="cluster619136899_619136900_cluster_619136929_619136942" toTaz="cluster619136880_619136881_cluster_4510442270_5296993511_5296993513_619136931_#1more">
        <route edges="668037874"/>
    </vehicle>
    <vehicle id="Flow14.13" type="Car14" depart="28.67" fromTaz="655375241" toTaz="655375241">
        <route edges="-1334905223#2 263217603#0 506322840#0"/>
    </vehicle>
    <vehicle id="Flow5.11" type="Car5" depart="28.69" fromTaz="cluster_623980090_623980094" toTaz="622618112">
        <route edges="196961215#2 288878926#0 593849715 49073272#0"/>
    </vehicle>
    <vehicle id="Flow9.12" type="Car9" depart="28.80" fromTaz="622618230" toTaz="655375232">
        <route edges="593849711#0 593849711#2"/>
    </vehicle>
    <vehicle id="Flow7.14" type="Car7" depart="29.16" fromTaz="cluster619136880_619136881_cluster_4510442270_5296993511_5296993513_619136931_#1more" toTaz="cluster655375336_end_0_655375336_end_1_655375336_end_10_655375336_end_11_#8more">
        <route edges="196961377#0 196961377#3 593849721 49073274 593852346 593849711#0 593849711#2 1068440006#0"/>
    </vehicle>
    <vehicle id="Flow6.15" type="Car6" depart="29.60" fromTaz="cluster_5372642442_631668976_631668981_631669076" toTaz="cluster619136899_619136900_cluster_619136929_619136942">
        <route edges="506322851#0 506322851#2 506322853#0"/>
    </vehicle>
    <vehicle id="Flow11.4" type="Car11" depart="30.00" fromTaz="cluster_623980147_623980152" toTaz="622618230">
        <route edges="288878926#0"/>
    </vehicle>
    <vehicle id="Flow12.12" type="Car12" depart="30.00" fromTaz="cluster_9383263990_9383263991_9383263992_9383263993" toTaz="cluster_2038168688_655375573">
        <route edges="506322842#0"/>
    </vehicle>
    <vehicle id="Flow8.11" type="Car8" depart="30.55" fromTaz="cluster_5372642442_631668976_631668981_631669076" toTaz="cluster_5372642442_631668976_631668981_631669076">
        <route edges="238526531#0 -35274074#2 -300077497#5 182334379#0"/>
    </vehicle>
    <vehicle id="Flow14.14" type="Car14" depart="30.87" fromTaz="655375241" toTaz="655375241">
        <route edges="-1334905223#2 263217603#0 506322840#0"/>
    </vehicle>
    <vehicle id="Flow2.17" type="Car2" depart="30.91" fromTaz="cluster_2664674491_655375287_655375288" toTaz="cluster_9383263990_9383263991_9383263992_9383263993">
        <route edges="244450512#4 244450512#5 593844221#0 49695736#0 182334379#0 238526531#0 506322848#0"/>
    </vehicle>
    <vehicle id="Flow3.6" type="Car3" depart="31.03" fromTaz="cluster_3431431575_4777363357_655375231_6982059025" toTaz="cluster_2528018119_655375236">
        <route edges="51362429#0 593847701 593847705 593847703#0"/>
    </vehicle>
    <vehicle id="Flow13.8" type="Car13" depart="31.17" fromTaz="cluster619136899_619136900_cluster_619136929_619136942" toTaz="cluster619136880_619136881_cluster_4510442270_5296993511_5296993513_619136931_#1more">
        <route edges="668037874"/>
    </vehicle>
    <vehicle id="Flow9.13" type="Car9" depart="31.20" fromTaz="622618230" toTaz="655375232">
        <route edges="593849711#0 593849711#2"/>
    </vehicle>
    <vehicle id="Flow7.15" type="Car7" depart="31.25" fromTaz="cluster619136880_619136881_cluster_4510442270_5296993511_5296993513_619136931_#1more" toTaz="cluster655375336_end_0_655375336_end_1_655375336_end_10_655375336_end_11_#8more">
        <route edges="910567294 353392316#0 288135626#0 1068234499#0 182334378#0"/>
    </vehicle>
    <vehicle id="Flow5.12" type="Car5" depart="31.30" fromTaz="cluster_623980090_623980094" toTaz="622618112">
        <route edges="196961215#2 288878926#0 593849715 49073272#0"/>
    </vehicle>
    <vehicle id="Flow1.9" type="Car1" depart="31.39" fromTaz="cluster619136899_619136900_cluster_619136929_619136942" toTaz="cluster619136880_619136881_cluster_4510442270_5296993511_5296993513_619136931_#1more">
        <route edges="668037874"/>
    </vehicle>
    <vehicle id="Flow6.16" type="Car6" depart="31.57" fromTaz="cluster_5372642442_631668976_631668981_631669076" toTaz="cluster619136899_619136900_cluster_619136929_619136942">
        <route edges="506322851#0 506322851#2 506322853#0"/>
    </vehicle>
    <vehicle id="Flow0.8" type="Car0" depart="31.58" fromTaz="cluster_623980090_623980094" toTaz="cluster619136899_619136900_cluster_619136929_619136942">
        <route edges="196961215#2 288878926#0 593849715 49073272#0 49073272#1 49073272#3 49073272#4"/>
    </vehicle>
    <vehicle id="Flow12.13" type="Car12" depart="32.50" fromTaz="cluster_9383263990_9383263991_9383263992_9383263993" toTaz="cluster_2038168688_655375573">
        <route edges="506322842#0"/>
    </vehicle>
    <vehicle id="Flow14.15" type="Car14" depart="33.08" fromTaz="655375241" toTaz="655375241">
        <route edges="-1334905223#2 263217603#0 506322840#0"/>
    </vehicle>
    <vehicle id="Flow8.12" type="Car8" depart="33.32" fromTaz="cluster_5372642442_631668976_631668981_631669076" toTaz="cluster_5372642442_631668976_631668981_631669076">
        <route edges="238526531#0 506322848#0 506322841#1 182336886 30620492#1 506322842#0 506322846#0 506322846#2"/>
    </vehicle>
    <vehicle id="Flow7.16" type="Car7" depart="33.33" fromTaz="cluster619136880_619136881_cluster_4510442270_5296993511_5296993513_619136931_#1more" toTaz="cluster655375336_end_0_655375336_end_1_655375336_end_10_655375336_end_11_#8more">
        <route edges="196961377#0 196961377#3 593849721 -593849724 -593847704#2 E0"/>
    </vehicle>
    <vehicle id="Flow6.17" type="Car6" depart="33.54" fromTaz="cluster_5372642442_631668976_631668981_631669076" toTaz="cluster619136899_619136900_cluster_619136929_619136942">
        <route edges="506322851#0 506322851#2 506322853#0"/>
    </vehicle>
    <vehicle id="Flow9.14" type="Car9" depart="33.60" fromTaz="622618230" toTaz="655375232">
        <route edges="593849711#0 593849711#2"/>
    </vehicle>
    <vehicle id="Flow5.13" type="Car5" depart="33.90" fromTaz="cluster_623980090_623980094" toTaz="622618112">
        <route edges="196961215#2 288878926#0 593849715 49073272#0"/>
    </vehicle>
    <vehicle id="Flow1.10" type="Car1" depart="34.88" fromTaz="cluster619136899_619136900_cluster_619136929_619136942" toTaz="cluster619136880_619136881_cluster_4510442270_5296993511_5296993513_619136931_#1more">
        <route edges="668037874"/>
    </vehicle>
    <vehicle id="Flow12.14" type="Car12" depart="35.00" fromTaz="cluster_9383263990_9383263991_9383263992_9383263993" toTaz="cluster_2038168688_655375573">
        <route edges="506322842#0"/>
    </vehicle>
    <vehicle id="Flow13.9" type="Car13" depart="35.06" fromTaz="cluster619136899_619136900_cluster_619136929_619136942" toTaz="cluster619136880_619136881_cluster_4510442270_5296993511_5296993513_619136931_#1more">
        <route edges="668037874"/>
    </vehicle>
    <vehicle id="Flow14.16" type="Car14" depart="35.28" fromTaz="655375241" toTaz="655375241">
        <route edges="-1334905223#2 263217603#0 506322840#0"/>
    </vehicle>
    <vehicle id="Flow7.17" type="Car7" depart="35.41" fromTaz="cluster619136880_619136881_cluster_4510442270_5296993511_5296993513_619136931_#1more" toTaz="cluster655375336_end_0_655375336_end_1_655375336_end_10_655375336_end_11_#8more">
        <route edges="910567294 353392316#0 288135626#0 1068234499#0 182334378#0"/>
    </vehicle>
    <vehicle id="Flow6.18" type="Car6" depart="35.51" fromTaz="cluster_5372642442_631668976_631668981_631669076" toTaz="cluster619136899_619136900_cluster_619136929_619136942">
        <route edges="506322851#0 506322851#2 506322853#0"/>
    </vehicle>
    <vehicle id="Flow0.9" type="Car0" depart="35.52" fromTaz="cluster_623980090_623980094" toTaz="cluster619136899_619136900_cluster_619136929_619136942">
        <route edges="196961215#2 288878926#0 593849715 49073272#0 49073272#1 49073272#3 49073272#4"/>
    </vehicle>
    <vehicle id="Flow9.15" type="Car9" depart="36.00" fromTaz="622618230" toTaz="655375232">
        <route edges="593849711#0 593849711#2"/>
    </vehicle>
    <vehicle id="Flow8.13" type="Car8" depart="36.10" fromTaz="cluster_5372642442_631668976_631668981_631669076" toTaz="cluster_5372642442_631668976_631668981_631669076">
        <route edges="238526531#0 -35274074#2 -300077497#5 182334379#0"/>
    </vehicle>
    <vehicle id="Flow3.7" type="Car3" depart="36.20" fromTaz="cluster_3431431575_4777363357_655375231_6982059025" toTaz="cluster_2528018119_655375236">
        <route edges="484988952#0 -51362430 1068440001 1239087513 593844221#0 49695736#0"/>
    </vehicle>
    <vehicle id="Flow2.20" type="Car2" depart="36.36" fromTaz="cluster_2664674491_655375287_655375288" toTaz="cluster_9383263990_9383263991_9383263992_9383263993">
        <route edges="244450512#4 244450512#5 593844221#0 49695736#0 182334379#0 238526531#0 506322848#0"/>
    </vehicle>
    <vehicle id="Flow5.14" type="Car5" depart="36.51" fromTaz="cluster_623980090_623980094" toTaz="622618112">
        <route edges="196961215#2 288878926#0 593849715 49073272#0"/>
    </vehicle>
    <vehicle id="Flow14.17" type="Car14" depart="37.49" fromTaz="655375241" toTaz="655375241">
        <route edges="-1334905223#2 263217603#0 506322840#0"/>
    </vehicle>
    <vehicle id="Flow6.19" type="Car6" depart="37.49" fromTaz="cluster_5372642442_631668976_631668981_631669076" toTaz="cluster619136899_619136900_cluster_619136929_619136942">
        <route edges="506322851#0 506322851#2 506322853#0"/>
    </vehicle>
    <vehicle id="Flow7.18" type="Car7" depart="37.49" fromTaz="cluster619136880_619136881_cluster_4510442270_5296993511_5296993513_619136931_#1more" toTaz="cluster655375336_end_0_655375336_end_1_655375336_end_10_655375336_end_11_#8more">
        <route edges="910567294 506322857#0 49695733#0 49695733#2 1068234498#0 288135626#0 1068234499#0 182334378#0"/>
    </vehicle>
    <vehicle id="Flow11.5" type="Car11" depart="37.50" fromTaz="cluster_623980147_623980152" toTaz="622618230">
        <route edges="288878926#0"/>
    </vehicle>
    <vehicle id="Flow12.15" type="Car12" depart="37.50" fromTaz="cluster_9383263990_9383263991_9383263992_9383263993" toTaz="cluster_2038168688_655375573">
        <route edges="506322842#0"/>
    </vehicle>
    <vehicle id="Flow1.11" type="Car1" depart="38.37" fromTaz="cluster619136899_619136900_cluster_619136929_619136942" toTaz="cluster619136880_619136881_cluster_4510442270_5296993511_5296993513_619136931_#1more">
        <route edges="668037874"/>
    </vehicle>
    <vehicle id="Flow9.16" type="Car9" depart="38.40" fromTaz="622618230" toTaz="655375232">
        <route edges="593849711#0 593849711#2"/>
    </vehicle>
    <vehicle id="Flow8.14" type="Car8" depart="38.88" fromTaz="cluster_5372642442_631668976_631668981_631669076" toTaz="cluster_5372642442_631668976_631668981_631669076">
        <route edges="238526531#0 506322848#0 506322841#1 182336886 30620492#1 506322842#0 506322846#0 506322846#2"/>
    </vehicle>
    <vehicle id="Flow13.10" type="Car13" depart="38.96" fromTaz="cluster619136899_619136900_cluster_619136929_619136942" toTaz="cluster619136880_619136881_cluster_4510442270_5296993511_5296993513_619136931_#1more">
        <route edges="668037874"/>
    </vehicle>
    <vehicle id="Flow5.15" type="Car5" depart="39.12" fromTaz="cluster_623980090_623980094" toTaz="622618112">
        <route edges="196961215#2 288878926#0 593849715 49073272#0"/>
    </vehicle>
    <vehicle id="Flow6.20" type="Car6" depart="39.46" fromTaz="cluster_5372642442_631668976_631668981_631669076" toTaz="cluster619136899_619136900_cluster_619136929_619136942">
        <route edges="506322851#0 506322851#2 506322853#0"/>
    </vehicle>
    <vehicle id="Flow0.10" type="Car0" depart="39.47" fromTaz="cluster_623980090_623980094" toTaz="cluster619136899_619136900_cluster_619136929_619136942">
        <route edges="196961215#2 288878926#0 593849715 49073272#0 49073272#1 49073272#3 49073272#4"/>
    </vehicle>
    <vehicle id="Flow7.19" type="Car7" depart="39.58" fromTaz="cluster619136880_619136881_cluster_4510442270_5296993511_5296993513_619136931_#1more" toTaz="cluster655375336_end_0_655375336_end_1_655375336_end_10_655375336_end_11_#8more">
        <route edges="196961377#0 196961377#3 593849721 49073274 593852346 593849715 -593847704#2 E0"/>
    </vehicle>
    <vehicle id="Flow14.18" type="Car14" depart="39.69" fromTaz="655375241" toTaz="655375241">
        <route edges="-1334905223#2 263217603#0 506322840#0"/>
    </vehicle>
    <vehicle id="Flow12.16" type="Car12" depart="40.00" fromTaz="cluster_9383263990_9383263991_9383263992_9383263993" toTaz="cluster_2038168688_655375573">
        <route edges="506322842#0"/>
    </vehicle>
    <vehicle id="Flow2.22" type="Car2" depart="40.00" fromTaz="cluster_2664674491_655375287_655375288" toTaz="cluster_9383263990_9383263991_9383263992_9383263993">
        <route edges="244450512#4 244450512#5 593844221#0 49695736#0 300077497#0 35274074#0 506322848#0"/>
    </vehicle>
    <vehicle id="Flow9.17" type="Car9" depart="40.80" fromTaz="622618230" toTaz="655375232">
        <route edges="593849711#0 593849711#2"/>
    </vehicle>
    <vehicle id="Flow3.8" type="Car3" depart="41.38" fromTaz="cluster_3431431575_4777363357_655375231_6982059025" toTaz="cluster_2528018119_655375236">
        <route edges="51362429#0 593847701 593847705 593847703#0"/>
    </vehicle>
    <vehicle id="Flow6.21" type="Car6" depart="41.43" fromTaz="cluster_5372642442_631668976_631668981_631669076" toTaz="cluster619136899_619136900_cluster_619136929_619136942">
        <route edges="506322851#0 506322851#2 506322853#0"/>
    </vehicle>
    <vehicle id="Flow7.20" type="Car7" depart="41.66" fromTaz="cluster619136880_619136881_cluster_4510442270_5296993511_5296993513_619136931_#1more" toTaz="cluster655375336_end_0_655375336_end_1_655375336_end_10_655375336_end_11_#8more">
        <route edges="196961377#0 196961377#3 593849721 -593849724 -593847704#2 E0"/>
    </vehicle>
    <vehicle id="Flow8.15" type="Car8" depart="41.66" fromTaz="cluster_5372642442_631668976_631668981_631669076" toTaz="cluster_5372642442_631668976_631668981_631669076">
        <route edges="238526531#0 506322848#0 506322841#1 182336886 30620492#1 506322842#0 506322846#0 506322846#2"/>
    </vehicle>
    <vehicle id="Flow5.16" type="Car5" depart="41.73" fromTaz="cluster_623980090_623980094" toTaz="622618112">
        <route edges="196961215#2 288878926#0 593849715 49073272#0"/>
    </vehicle>
    <vehicle id="Flow2.23" type="Car2" depart="41.81" fromTaz="cluster_2664674491_655375287_655375288" toTaz="cluster_9383263990_9383263991_9383263992_9383263993">
        <route edges="244450512#4 244450512#5 593844221#0 49695736#0 182334379#0 238526531#0 506322848#0"/>
    </vehicle>
    <vehicle id="Flow1.12" type="Car1" depart="41.86" fromTaz="cluster619136899_619136900_cluster_619136929_619136942" toTaz="cluster619136880_619136881_cluster_4510442270_5296993511_5296993513_619136931_#1more">
        <route edges="668037874"/>
    </vehicle>
    <vehicle id="Flow14.19" type="Car14" depart="41.90" fromTaz="655375241" toTaz="655375241">
        <route edges="-1334905223#2 263217603#0 506322840#0"/>
    </vehicle>
    <vehicle id="Flow12.17" type="Car12" depart="42.50" fromTaz="cluster_9383263990_9383263991_9383263992_9383263993" toTaz="cluster_2038168688_655375573">
        <route edges="506322842#0"/>
    </vehicle>
    <vehicle id="Flow13.11" type="Car13" depart="42.86" fromTaz="cluster619136899_619136900_cluster_619136929_619136942" toTaz="cluster619136880_619136881_cluster_4510442270_5296993511_5296993513_619136931_#1more">
        <route edges="668037874"/>
    </vehicle>
    <vehicle id="Flow9.18" type="Car9" depart="43.20" fromTaz="622618230" toTaz="655375232">
        <route edges="593849711#0 593849711#2"/>
    </vehicle>
    <vehicle id="Flow6.22" type="Car6" depart="43.41" fromTaz="cluster_5372642442_631668976_631668981_631669076" toTaz="cluster619136899_619136900_cluster_619136929_619136942">
        <route edges="506322851#0 506322851#2 506322853#0"/>
    </vehicle>
    <vehicle id="Flow0.11" type="Car0" depart="43.42" fromTaz="cluster_623980090_623980094" toTaz="cluster619136899_619136900_cluster_619136929_619136942">
        <route edges="196961215#2 288878926#0 593849715 49073272#0 49073272#1 49073272#3 49073272#4"/>
    </vehicle>
    <vehicle id="Flow7.21" type="Car7" depart="43.74" fromTaz="cluster619136880_619136881_cluster_4510442270_5296993511_5296993513_619136931_#1more" toTaz="cluster655375336_end_0_655375336_end_1_655375336_end_10_655375336_end_11_#8more">
        <route edges="910567294 353392316#0 288135626#0 1068234499#0 182334378#0"/>
    </vehicle>
    <vehicle id="Flow14.20" type="Car14" depart="44.10" fromTaz="655375241" toTaz="655375241">
        <route edges="-1334905223#2 263217603#0 506322840#0"/>
    </vehicle>
    <vehicle id="Flow5.17" type="Car5" depart="44.34" fromTaz="cluster_623980090_623980094" toTaz="622618112">
        <route edges="196961215#2 288878926#0 593849715 49073272#0"/>
    </vehicle>
    <vehicle id="Flow8.16" type="Car8" depart="44.43" fromTaz="cluster_5372642442_631668976_631668981_631669076" toTaz="cluster_5372642442_631668976_631668981_631669076">
        <route edges="238526531#0 -35274074#2 -300077497#5 182334379#0"/>
    </vehicle>
    <vehicle id="Flow11.6" type="Car11" depart="45.00" fromTaz="cluster_623980147_623980152" toTaz="622618230">
        <route edges="288878926#0"/>
    </vehicle>
    <vehicle id="Flow12.18" type="Car12" depart="45.00" fromTaz="cluster_9383263990_9383263991_9383263992_9383263993" toTaz="cluster_2038168688_655375573">
        <route edges="506322842#0"/>
    </vehicle>
    <vehicle id="Flow1.13" type="Car1" depart="45.34" fromTaz="cluster619136899_619136900_cluster_619136929_619136942" toTaz="cluster619136880_619136881_cluster_4510442270_5296993511_5296993513_619136931_#1more">
        <route edges="668037874"/>
    </vehicle>
    <vehicle id="Flow6.23" type="Car6" depart="45.38" fromTaz="cluster_5372642442_631668976_631668981_631669076" toTaz="cluster619136899_619136900_cluster_619136929_619136942">
        <route edges="506322851#0 506322851#2 506322853#0"/>
    </vehicle>
    <vehicle id="Flow9.19" type="Car9" depart="45.60" fromTaz="622618230" toTaz="655375232">
        <route edges="593849711#0 593849711#2"/>
    </vehicle>
    <vehicle id="Flow7.22" type="Car7" depart="45.83" fromTaz="cluster619136880_619136881_cluster_4510442270_5296993511_5296993513_619136931_#1more" toTaz="cluster655375336_end_0_655375336_end_1_655375336_end_10_655375336_end_11_#8more">
        <route edges="910567294 353392316#0 288135626#0 1068234499#0 182334378#0"/>
    </vehicle>
    <vehicle id="Flow14.21" type="Car14" depart="46.31" fromTaz="655375241" toTaz="655375241">
        <route edges="-1334905223#2 263217603#0 506322840#0"/>
    </vehicle>
    <vehicle id="Flow3.9" type="Car3" depart="46.55" fromTaz="cluster_3431431575_4777363357_655375231_6982059025" toTaz="cluster_2528018119_655375236">
        <route edges="51362429#0 593847701 593847705 593847703#0"/>
    </vehicle>
    <vehicle id="Flow13.12" type="Car13" depart="46.75" fromTaz="cluster619136899_619136900_cluster_619136929_619136942" toTaz="cluster619136880_619136881_cluster_4510442270_5296993511_5296993513_619136931_#1more">
        <route edges="668037874"/>
    </vehicle>
    <vehicle id="Flow5.18" type="Car5" depart="46.94" fromTaz="cluster_623980090_623980094" toTaz="622618112">
        <route edges="196961215#2 288878926#0 593849715 49073272#0"/>
    </vehicle>
    <vehicle id="Flow8.17" type="Car8" depart="47.21" fromTaz="cluster_5372642442_631668976_631668981_631669076" toTaz="cluster_5372642442_631668976_631668981_631669076">
        <route edges="288135626#0 1068234499#0 300077497#0 35274074#0 506322846#0 506322846#2"/>
    </vehicle>
    <vehicle id="Flow2.26" type="Car2" depart="47.27" fromTaz="cluster_2664674491_655375287_655375288" toTaz="cluster_9383263990_9383263991_9383263992_9383263993">
        <route edges="244450512#4 244450512#5 593844221#0 49695736#0 300077497#0 35274074#0 506322848#0"/>
    </vehicle>
    <vehicle id="Flow6.24" type="Car6" depart="47.35" fromTaz="cluster_5372642442_631668976_631668981_631669076" toTaz="cluster619136899_619136900_cluster_619136929_619136942">
        <route edges="506322851#0 506322851#2 506322853#0"/>
    </vehicle>
    <vehicle id="Flow0.12" type="Car0" depart="47.36" fromTaz="cluster_623980090_623980094" toTaz="cluster619136899_619136900_cluster_619136929_619136942">
        <route edges="196961215#2 288878926#0 593849715 49073272#0 49073272#1 49073272#3 49073272#4"/>
    </vehicle>
    <vehicle id="Flow12.19" type="Car12" depart="47.50" fromTaz="cluster_9383263990_9383263991_9383263992_9383263993" toTaz="cluster_2038168688_655375573">
        <route edges="506322842#0"/>
    </vehicle>
    <vehicle id="Flow7.23" type="Car7" depart="47.91" fromTaz="cluster619136880_619136881_cluster_4510442270_5296993511_5296993513_619136931_#1more" toTaz="cluster655375336_end_0_655375336_end_1_655375336_end_10_655375336_end_11_#8more">
        <route edges="196961377#0 196961377#3 593849721 -593849724 -593847704#2 E0"/>
    </vehicle>
    <vehicle id="Flow9.20" type="Car9" depart="48.00" fromTaz="622618230" toTaz="655375232">
        <route edges="593849711#0 593849711#2"/>
    </vehicle>
    <vehicle id="Flow14.22" type="Car14" depart="48.51" fromTaz="655375241" toTaz="655375241">
        <route edges="-1334905223#2 263217603#0 506322840#0"/>
    </vehicle>
    <vehicle id="Flow1.14" type="Car1" depart="48.83" fromTaz="cluster619136899_619136900_cluster_619136929_619136942" toTaz="cluster619136880_619136881_cluster_4510442270_5296993511_5296993513_619136931_#1more">
        <route edges="668037874"/>
    </vehicle>
    <vehicle id="Flow6.25" type="Car6" depart="49.33" fromTaz="cluster_5372642442_631668976_631668981_631669076" toTaz="cluster619136899_619136900_cluster_619136929_619136942">
        <route edges="506322851#0 506322851#2 506322853#0"/>
    </vehicle>
    <vehicle id="Flow5.19" type="Car5" depart="49.55" fromTaz="cluster_623980090_623980094" toTaz="622618112">
        <route edges="196961215#2 288878926#0 593849715 49073272#0"/>
    </vehicle>
    <vehicle id="Flow7.24" type="Car7" depart="49.99" fromTaz="cluster619136880_619136881_cluster_4510442270_5296993511_5296993513_619136931_#1more" toTaz="cluster655375336_end_0_655375336_end_1_655375336_end_10_655375336_end_11_#8more">
        <route edges="196961377#0 196961377#3 593849721 -593849724 -593847704#2 593847705 593847703#0 182334378#0"/>
    </vehicle>
    <vehicle id="Flow8.18" type="Car8" depart="49.99" fromTaz="cluster_5372642442_631668976_631668981_631669076" toTaz="cluster_5372642442_631668976_631668981_631669076">
        <route edges="238526531#0 506322848#0 506322844#0 -300077497#8 35274074#0 506322846#0 506322846#2"/>
    </vehicle>
    <vehicle id="Flow12.20" type="Car12" depart="50.00" fromTaz="cluster_9383263990_9383263991_9383263992_9383263993" toTaz="cluster_2038168688_655375573">
        <route edges="506322842#0"/>
    </vehicle>
    <vehicle id="Flow4.2" type="Car4" depart="50.00" fromTaz="cluster_2528018119_655375236" toTaz="655375233">
        <route edges="-593847703#3"/>
    </vehicle>
    <vehicle id="Flow9.21" type="Car9" depart="50.40" fromTaz="622618230" toTaz="655375232">
        <route edges="593849715 -593847704#2 -593847701"/>
    </vehicle>
    <vehicle id="Flow13.13" type="Car13" depart="50.65" fromTaz="cluster619136899_619136900_cluster_619136929_619136942" toTaz="cluster619136880_619136881_cluster_4510442270_5296993511_5296993513_619136931_#1more">
        <route edges="668037874"/>
    </vehicle>
    <vehicle id="Flow14.23" type="Car14" depart="50.72" fromTaz="655375241" toTaz="655375241">
        <route edges="-1334905223#2 263217603#0 506322840#0"/>
    </vehicle>
    <vehicle id="Flow6.26" type="Car6" depart="51.30" fromTaz="cluster_5372642442_631668976_631668981_631669076" toTaz="cluster619136899_619136900_cluster_619136929_619136942">
        <route edges="506322851#0 506322851#2 506322853#0"/>
    </vehicle>
    <vehicle id="Flow0.13" type="Car0" depart="51.31" fromTaz="cluster_623980090_623980094" toTaz="cluster619136899_619136900_cluster_619136929_619136942">
        <route edges="196961215#2 288878926#0 593849715 49073272#0 49073272#1 49073272#3 49073272#4"/>
    </vehicle>
    <vehicle id="Flow3.10" type="Car3" depart="51.72" fromTaz="cluster_3431431575_4777363357_655375231_6982059025" toTaz="cluster_2528018119_655375236">
        <route edges="51362429#0 593847701 593847705 593847703#0"/>
    </vehicle>
    <vehicle id="Flow7.25" type="Car7" depart="52.08" fromTaz="cluster619136880_619136881_cluster_4510442270_5296993511_5296993513_619136931_#1more" toTaz="cluster655375336_end_0_655375336_end_1_655375336_end_10_655375336_end_11_#8more">
        <route edges="910567294 353392316#0 288135626#0 1068234499#0 182334378#0"/>
    </vehicle>
    <vehicle id="Flow5.20" type="Car5" depart="52.16" fromTaz="cluster_623980090_623980094" toTaz="622618112">
        <route edges="196961215#2 288878926#0 593849715 49073272#0"/>
    </vehicle>
    <vehicle id="Flow1.15" type="Car1" depart="52.32" fromTaz="cluster619136899_619136900_cluster_619136929_619136942" toTaz="cluster619136880_619136881_cluster_4510442270_5296993511_5296993513_619136931_#1more">
        <route edges="668037874"/>
    </vehicle>
    <vehicle id="Flow11.7" type="Car11" depart="52.50" fromTaz="cluster_623980147_623980152" toTaz="622618230">
        <route edges="288878926#0"/>
    </vehicle>
    <vehicle id="Flow12.21" type="Car12" depart="52.50" fromTaz="cluster_9383263990_9383263991_9383263992_9383263993" toTaz="cluster_2038168688_655375573">
        <route edges="506322842#0"/>
    </vehicle>
    <vehicle id="Flow8.19" type="Car8" depart="52.76" fromTaz="cluster_5372642442_631668976_631668981_631669076" toTaz="cluster_5372642442_631668976_631668981_631669076">
        <route edges="238526531#0 -35274074#2 -300077497#5 182334379#0"/>
    </vehicle>
    <vehicle id="Flow9.22" type="Car9" depart="52.80" fromTaz="622618230" toTaz="655375232">
        <route edges="593849715 -593847704#2 -593847701"/>
    </vehicle>
    <vehicle id="Flow14.24" type="Car14" depart="52.92" fromTaz="655375241" toTaz="655375241">
        <route edges="-1334905223#2 263217603#0 506322840#0"/>
    </vehicle>
    <vehicle id="Flow6.27" type="Car6" depart="53.27" fromTaz="cluster_5372642442_631668976_631668981_631669076" toTaz="cluster619136899_619136900_cluster_619136929_619136942">
        <route edges="506322851#0 506322851#2 506322853#0"/>
    </vehicle>
    <vehicle id="Flow7.26" type="Car7" depart="54.16" fromTaz="cluster619136880_619136881_cluster_4510442270_5296993511_5296993513_619136931_#1more" toTaz="cluster655375336_end_0_655375336_end_1_655375336_end_10_655375336_end_11_#8more">
        <route edges="196961377#0 196961377#3 593849721 49073274 593852346 593849711#0 593849711#2 593847701 E0"/>
    </vehicle>
    <vehicle id="Flow13.14" type="Car13" depart="54.54" fromTaz="cluster619136899_619136900_cluster_619136929_619136942" toTaz="cluster619136880_619136881_cluster_4510442270_5296993511_5296993513_619136931_#1more">
        <route edges="668037874"/>
    </vehicle>
    <vehicle id="Flow2.30" type="Car2" depart="54.54" fromTaz="cluster_2664674491_655375287_655375288" toTaz="cluster_9383263990_9383263991_9383263992_9383263993">
        <route edges="244450512#4 244450512#5 593844221#0 49695736#0 182334379#0 238526531#0 506322848#0"/>
    </vehicle>
    <vehicle id="Flow5.21" type="Car5" depart="54.77" fromTaz="cluster_623980090_623980094" toTaz="622618112">
        <route edges="196961215#2 288878926#0 593849715 49073272#0"/>
    </vehicle>
    <vehicle id="Flow12.22" type="Car12" depart="55.00" fromTaz="cluster_9383263990_9383263991_9383263992_9383263993" toTaz="cluster_2038168688_655375573">
        <route edges="506322842#0"/>
    </vehicle>
    <vehicle id="Flow14.25" type="Car14" depart="55.13" fromTaz="655375241" toTaz="655375241">
        <route edges="-1334905223#2 263217603#0 506322840#0"/>
    </vehicle>
    <vehicle id="Flow9.23" type="Car9" depart="55.20" fromTaz="622618230" toTaz="655375232">
        <route edges="593849715 -593847704#2 -593847701"/>
    </vehicle>
    <vehicle id="Flow6.28" type="Car6" depart="55.24" fromTaz="cluster_5372642442_631668976_631668981_631669076" toTaz="cluster619136899_619136900_cluster_619136929_619136942">
        <route edges="506322851#0 506322851#2 506322853#0"/>
    </vehicle>
    <vehicle id="Flow0.14" type="Car0" depart="55.26" fromTaz="cluster_623980090_623980094" toTaz="cluster619136899_619136900_cluster_619136929_619136942">
        <route edges="196961215#2 288878926#0 593849715 49073272#0 49073272#1 49073272#3 49073272#4"/>
    </vehicle>
    <vehicle id="Flow1.16" type="Car1" depart="55.81" fromTaz="cluster619136899_619136900_cluster_619136929_619136942" toTaz="cluster619136880_619136881_cluster_4510442270_5296993511_5296993513_619136931_#1more">
        <route edges="668037874"/>
    </vehicle>
    <vehicle id="Flow7.27" type="Car7" depart="56.24" fromTaz="cluster619136880_619136881_cluster_4510442270_5296993511_5296993513_619136931_#1more" toTaz="cluster655375336_end_0_655375336_end_1_655375336_end_10_655375336_end_11_#8more">
        <route edges="910567294 353392316#0 288135626#0 1068234499#0 182334378#0"/>
    </vehicle>
    <vehicle id="Flow3.11" type="Car3" depart="56.89" fromTaz="cluster_3431431575_4777363357_655375231_6982059025" toTaz="cluster_2528018119_655375236">
        <route edges="51362429#0 593847701 593847705 593847703#0"/>
    </vehicle>
    <vehicle id="Flow6.29" type="Car6" depart="57.22" fromTaz="cluster_5372642442_631668976_631668981_631669076" toTaz="cluster619136899_619136900_cluster_619136929_619136942">
        <route edges="506322851#0 506322851#2 506322853#0"/>
    </vehicle>
    <vehicle id="Flow14.26" type="Car14" depart="57.33" fromTaz="655375241" toTaz="655375241">
        <route edges="-1334905223#2 263217603#0 506322840#0"/>
    </vehicle>
    <vehicle id="Flow5.22" type="Car5" depart="57.38" fromTaz="cluster_623980090_623980094" toTaz="622618112">
        <route edges="196961215#2 288878926#0 593849715 49073272#0"/>
    </vehicle>
    <vehicle id="Flow12.23" type="Car12" depart="57.50" fromTaz="cluster_9383263990_9383263991_9383263992_9383263993" toTaz="cluster_2038168688_655375573">
        <route edges="506322842#0"/>
    </vehicle>
    <vehicle id="Flow9.24" type="Car9" depart="57.60" fromTaz="622618230" toTaz="655375232">
        <route edges="593849715 -593847704#2 -593847701"/>
    </vehicle>
    <vehicle id="Flow7.28" type="Car7" depart="58.32" fromTaz="cluster619136880_619136881_cluster_4510442270_5296993511_5296993513_619136931_#1more" toTaz="cluster655375336_end_0_655375336_end_1_655375336_end_10_655375336_end_11_#8more">
        <route edges="196961377#0 196961377#3 593849721 49073274 593852346 593849715 -593847704#2 E0"/>
    </vehicle>
    <vehicle id="Flow8.21" type="Car8" depart="58.32" fromTaz="cluster_5372642442_631668976_631668981_631669076" toTaz="cluster_5372642442_631668976_631668981_631669076">
        <route edges="238526531#0 -35274074#2 -300077497#5 182334379#0"/>
    </vehicle>
    <vehicle id="Flow13.15" type="Car13" depart="58.44" fromTaz="cluster619136899_619136900_cluster_619136929_619136942" toTaz="cluster619136880_619136881_cluster_4510442270_5296993511_5296993513_619136931_#1more">
        <route edges="668037874"/>
    </vehicle>
    <vehicle id="Flow6.30" type="Car6" depart="59.19" fromTaz="cluster_5372642442_631668976_631668981_631669076" toTaz="cluster619136899_619136900_cluster_619136929_619136942">
        <route edges="506322851#0 506322851#2 506322853#0"/>
    </vehicle>
    <vehicle id="Flow0.15" type="Car0" depart="59.21" fromTaz="cluster_623980090_623980094" toTaz="cluster619136899_619136900_cluster_619136929_619136942">
        <route edges="196961215#2 288878926#0 593849715 49073272#0 49073272#1 49073272#3 49073272#4"/>
    </vehicle>
    <vehicle id="Flow1.17" type="Car1" depart="59.30" fromTaz="cluster619136899_619136900_cluster_619136929_619136942" toTaz="cluster619136880_619136881_cluster_4510442270_5296993511_5296993513_619136931_#1more">
        <route edges="668037874"/>
    </vehicle>
    <vehicle id="Flow14.27" type="Car14" depart="59.54" fromTaz="655375241" toTaz="655375241">
        <route edges="-1334905223#2 263217603#0 506322840#0"/>
    </vehicle>
    <vehicle id="Flow5.23" type="Car5" depart="59.98" fromTaz="cluster_623980090_623980094" toTaz="622618112">
        <route edges="196961215#2 288878926#0 593849715 49073272#0"/>
    </vehicle>
    <vehicle id="Flow2.33" type="Car2" depart="59.99" fromTaz="cluster_2664674491_655375287_655375288" toTaz="cluster_9383263990_9383263991_9383263992_9383263993">
        <route edges="244450512#4 244450512#5 593844221#0 49695736#0 182334379#0 238526531#0 506322848#0"/>
    </vehicle>
    <vehicle id="Flow11.8" type="Car11" depart="60.00" fromTaz="cluster_623980147_623980152" toTaz="622618230">
        <route edges="288878926#0"/>
    </vehicle>
    <vehicle id="Flow12.24" type="Car12" depart="60.00" fromTaz="cluster_9383263990_9383263991_9383263992_9383263993" toTaz="cluster_2038168688_655375573">
        <route edges="506322842#0"/>
    </vehicle>
    <vehicle id="Flow9.25" type="Car9" depart="60.00" fromTaz="622618230" toTaz="655375232">
        <route edges="593849715 -593847704#2 -593847701"/>
    </vehicle>
    <vehicle id="Flow7.29" type="Car7" depart="60.41" fromTaz="cluster619136880_619136881_cluster_4510442270_5296993511_5296993513_619136931_#1more" toTaz="cluster655375336_end_0_655375336_end_1_655375336_end_10_655375336_end_11_#8more">
        <route edges="196961377#0 196961377#3 593849721 -593849724 -593847704#2 E0"/>
    </vehicle>
    <vehicle id="Flow8.22" type="Car8" depart="61.09" fromTaz="cluster_5372642442_631668976_631668981_631669076" toTaz="cluster_5372642442_631668976_631668981_631669076">
        <route edges="238526531#0 -35274074#2 -300077497#5 182334379#0"/>
    </vehicle>
    <vehicle id="Flow6.31" type="Car6" depart="61.16" fromTaz="cluster_5372642442_631668976_631668981_631669076" toTaz="cluster619136899_619136900_cluster_619136929_619136942">
        <route edges="506322851#0 506322851#2 506322853#0"/>
    </vehicle>
    <vehicle id="Flow14.28" type="Car14" depart="61.74" fromTaz="655375241" toTaz="655375241">
        <route edges="-1334905223#2 263217603#0 506322840#0"/>
    </vehicle>
    <vehicle id="Flow3.12" type="Car3" depart="62.06" fromTaz="cluster_3431431575_4777363357_655375231_6982059025" toTaz="cluster_2528018119_655375236">
        <route edges="51362429#0 593847701 593847705 593847703#0"/>
    </vehicle>
    <vehicle id="Flow13.16" type="Car13" depart="62.34" fromTaz="cluster619136899_619136900_cluster_619136929_619136942" toTaz="cluster619136880_619136881_cluster_4510442270_5296993511_5296993513_619136931_#1more">
        <route edges="668037874"/>
    </vehicle>
    <vehicle id="Flow9.26" type="Car9" depart="62.40" fromTaz="622618230" toTaz="655375232">
        <route edges="593849711#0 593849711#2"/>
    </vehicle>
    <vehicle id="Flow7.30" type="Car7" depart="62.49" fromTaz="cluster619136880_619136881_cluster_4510442270_5296993511_5296993513_619136931_#1more" toTaz="cluster655375336_end_0_655375336_end_1_655375336_end_10_655375336_end_11_#8more">
        <route edges="910567294 353392316#0 288135626#0 1068234499#0 182334378#0"/>
    </vehicle>
    <vehicle id="Flow12.25" type="Car12" depart="62.50" fromTaz="cluster_9383263990_9383263991_9383263992_9383263993" toTaz="cluster_2038168688_655375573">
        <route edges="506322842#0"/>
    </vehicle>
    <vehicle id="Flow5.24" type="Car5" depart="62.59" fromTaz="cluster_623980090_623980094" toTaz="622618112">
        <route edges="196961215#2 288878926#0 593849715 49073272#0"/>
    </vehicle>
    <vehicle id="Flow1.18" type="Car1" depart="62.78" fromTaz="cluster619136899_619136900_cluster_619136929_619136942" toTaz="cluster619136880_619136881_cluster_4510442270_5296993511_5296993513_619136931_#1more">
        <route edges="668037874"/>
    </vehicle>
    <vehicle id="Flow6.32" type="Car6" depart="63.14" fromTaz="cluster_5372642442_631668976_631668981_631669076" toTaz="cluster619136899_619136900_cluster_619136929_619136942">
        <route edges="506322851#0 506322851#2 506322853#0"/>
    </vehicle>
    <vehicle id="Flow0.16" type="Car0" depart="63.15" fromTaz="cluster_623980090_623980094" toTaz="cluster619136899_619136900_cluster_619136929_619136942">
        <route edges="196961215#2 288878926#0 593849715 49073272#0 49073272#1 49073272#3 49073272#4"/>
    </vehicle>
    <vehicle id="Flow8.23" type="Car8" depart="63.87" fromTaz="cluster_5372642442_631668976_631668981_631669076" toTaz="cluster_5372642442_631668976_631668981_631669076">
        <route edges="238526531#0 506322848#0 506322841#1 182336886 30620492#1 506322842#0 506322846#0 506322846#2"/>
    </vehicle>
    <vehicle id="Flow14.29" type="Car14" depart="63.95" fromTaz="655375241" toTaz="655375241">
        <route edges="-1334905223#2 263217603#0 506322840#0"/>
    </vehicle>
    <vehicle id="Flow7.31" type="Car7" depart="64.57" fromTaz="cluster619136880_619136881_cluster_4510442270_5296993511_5296993513_619136931_#1more" toTaz="cluster655375336_end_0_655375336_end_1_655375336_end_10_655375336_end_11_#8more">
        <route edges="196961377#0 196961377#3 593849721 -593849724 -593847704#2 E0"/>
    </vehicle>
    <vehicle id="Flow9.27" type="Car9" depart="64.80" fromTaz="622618230" toTaz="655375232">
        <route edges="593849711#0 593849711#2"/>
    </vehicle>
    <vehicle id="Flow12.26" type="Car12" depart="65.00" fromTaz="cluster_9383263990_9383263991_9383263992_9383263993" toTaz="cluster_2038168688_655375573">
        <route edges="506322842#0"/>
    </vehicle>
    <vehicle id="Flow6.33" type="Car6" depart="65.11" fromTaz="cluster_5372642442_631668976_631668981_631669076" toTaz="cluster619136899_619136900_cluster_619136929_619136942">
        <route edges="506322851#0 506322851#2 506322853#0"/>
    </vehicle>
    <vehicle id="Flow5.25" type="Car5" depart="65.20" fromTaz="cluster_623980090_623980094" toTaz="622618112">
        <route edges="196961215#2 288878926#0 593849715 49073272#0"/>
    </vehicle>
    <vehicle id="Flow14.30" type="Car14" depart="66.15" fromTaz="655375241" toTaz="655375241">
        <route edges="-1334905223#2 263217603#0 506322840#0"/>
    </vehicle>
    <vehicle id="Flow13.17" type="Car13" depart="66.23" fromTaz="cluster619136899_619136900_cluster_619136929_619136942" toTaz="cluster619136880_619136881_cluster_4510442270_5296993511_5296993513_619136931_#1more">
        <route edges="668037874"/>
    </vehicle>
    <vehicle id="Flow1.19" type="Car1" depart="66.27" fromTaz="cluster619136899_619136900_cluster_619136929_619136942" toTaz="cluster619136880_619136881_cluster_4510442270_5296993511_5296993513_619136931_#1more">
        <route edges="668037874"/>
    </vehicle>
    <vehicle id="Flow8.24" type="Car8" depart="66.65" fromTaz="cluster_5372642442_631668976_631668981_631669076" toTaz="cluster_5372642442_631668976_631668981_631669076">
        <route edges="238526531#0 -35274074#2 -300077497#5 182334379#0"/>
    </vehicle>
    <vehicle id="Flow7.32" type="Car7" depart="66.66" fromTaz="cluster619136880_619136881_cluster_4510442270_5296993511_5296993513_619136931_#1more" toTaz="cluster655375336_end_0_655375336_end_1_655375336_end_10_655375336_end_11_#8more">
        <route edges="910567294 353392316#0 288135626#0 1068234499#0 182334378#0"/>
    </vehicle>
    <vehicle id="Flow6.34" type="Car6" depart="67.08" fromTaz="cluster_5372642442_631668976_631668981_631669076" toTaz="cluster619136899_619136900_cluster_619136929_619136942">
        <route edges="506322851#0 506322851#2 506322853#0"/>
    </vehicle>
    <vehicle id="Flow0.17" type="Car0" depart="67.10" fromTaz="cluster_623980090_623980094" toTaz="cluster619136899_619136900_cluster_619136929_619136942">
        <route edges="196961215#2 288878926#0 593849715 49073272#0 49073272#1 49073272#3 49073272#4"/>
    </vehicle>
    <vehicle id="Flow9.28" type="Car9" depart="67.20" fromTaz="622618230" toTaz="655375232">
        <route edges="593849715 -593847704#2 -593847701"/>
    </vehicle>
    <vehicle id="Flow3.13" type="Car3" depart="67.24" fromTaz="cluster_3431431575_4777363357_655375231_6982059025" toTaz="cluster_2528018119_655375236">
        <route edges="484988952#0 -51362430 1068440001 1239087513 593844221#0 49695736#0"/>
    </vehicle>
    <vehicle id="Flow11.9" type="Car11" depart="67.50" fromTaz="cluster_623980147_623980152" toTaz="622618230">
        <route edges="288878926#0"/>
    </vehicle>
    <vehicle id="Flow12.27" type="Car12" depart="67.50" fromTaz="cluster_9383263990_9383263991_9383263992_9383263993" toTaz="cluster_2038168688_655375573">
        <route edges="506322842#0"/>
    </vehicle>
    <vehicle id="Flow5.26" type="Car5" depart="67.81" fromTaz="cluster_623980090_623980094" toTaz="622618112">
        <route edges="196961215#2 288878926#0 593849715 49073272#0"/>
    </vehicle>
    <vehicle id="Flow14.31" type="Car14" depart="68.36" fromTaz="655375241" toTaz="655375241">
        <route edges="-1334905223#2 263217603#0 506322840#0"/>
    </vehicle>
    <vehicle id="Flow7.33" type="Car7" depart="68.74" fromTaz="cluster619136880_619136881_cluster_4510442270_5296993511_5296993513_619136931_#1more" toTaz="cluster655375336_end_0_655375336_end_1_655375336_end_10_655375336_end_11_#8more">
        <route edges="196961377#0 196961377#3 593849721 -593849724 -593847704#2 E0"/>
    </vehicle>
    <vehicle id="Flow6.35" type="Car6" depart="69.06" fromTaz="cluster_5372642442_631668976_631668981_631669076" toTaz="cluster619136899_619136900_cluster_619136929_619136942">
        <route edges="506322851#0 506322851#2 506322853#0"/>
    </vehicle>
    <vehicle id="Flow8.25" type="Car8" depart="69.43" fromTaz="cluster_5372642442_631668976_631668981_631669076" toTaz="cluster_5372642442_631668976_631668981_631669076">
        <route edges="238526531#0 -35274074#2 -300077497#5 182334379#0"/>
    </vehicle>
    <vehicle id="Flow9.29" type="Car9" depart="69.60" fromTaz="622618230" toTaz="655375232">
        <route edges="593849711#0 593849711#2"/>
    </vehicle>
    <vehicle id="Flow1.20" type="Car1" depart="69.76" fromTaz="cluster619136899_619136900_cluster_619136929_619136942" toTaz="cluster619136880_619136881_cluster_4510442270_5296993511_5296993513_619136931_#1more">
        <route edges="668037874"/>
    </vehicle>
    <vehicle id="Flow12.28" type="Car12" depart="70.00" fromTaz="cluster_9383263990_9383263991_9383263992_9383263993" toTaz="cluster_2038168688_655375573">
        <route edges="506322842#0"/>
    </vehicle>
    <vehicle id="Flow13.18" type="Car13" depart="70.13" fromTaz="cluster619136899_619136900_cluster_619136929_619136942" toTaz="cluster619136880_619136881_cluster_4510442270_5296993511_5296993513_619136931_#1more">
        <route edges="668037874"/>
    </vehicle>
    <vehicle id="Flow5.27" type="Car5" depart="70.42" fromTaz="cluster_623980090_623980094" toTaz="622618112">
        <route edges="196961215#2 288878926#0 593849715 49073272#0"/>
    </vehicle>
    <vehicle id="Flow14.32" type="Car14" depart="70.56" fromTaz="655375241" toTaz="655375241">
        <route edges="-1334905223#2 263217603#0 506322840#0"/>
    </vehicle>
    <vehicle id="Flow7.34" type="Car7" depart="70.82" fromTaz="cluster619136880_619136881_cluster_4510442270_5296993511_5296993513_619136931_#1more" toTaz="cluster655375336_end_0_655375336_end_1_655375336_end_10_655375336_end_11_#8more">
        <route edges="910567294 353392316#0 288135626#0 1068234499#0 182334378#0"/>
    </vehicle>
    <vehicle id="Flow6.36" type="Car6" depart="71.03" fromTaz="cluster_5372642442_631668976_631668981_631669076" toTaz="cluster619136899_619136900_cluster_619136929_619136942">
        <route edges="506322851#0 506322851#2 506322853#0"/>
    </vehicle>
    <vehicle id="Flow0.18" type="Car0" depart="71.05" fromTaz="cluster_623980090_623980094" toTaz="cluster619136899_619136900_cluster_619136929_619136942">
        <route edges="196961215#2 288878926#0 593849715 49073272#0 49073272#1 49073272#3 49073272#4"/>
    </vehicle>
    <vehicle id="Flow9.30" type="Car9" depart="72.00" fromTaz="622618230" toTaz="655375232">
        <route edges="593849715 -593847704#2 -593847701"/>
    </vehicle>
    <vehicle id="Flow3.14" type="Car3" depart="72.41" fromTaz="cluster_3431431575_4777363357_655375231_6982059025" toTaz="cluster_2528018119_655375236">
        <route edges="484988952#0 -51362430 1068440001 1239087513 593844221#0 49695736#0"/>
    </vehicle>
    <vehicle id="Flow12.29" type="Car12" depart="72.50" fromTaz="cluster_9383263990_9383263991_9383263992_9383263993" toTaz="cluster_2038168688_655375573">
        <route edges="506322842#0"/>
    </vehicle>
    <vehicle id="Flow2.40" type="Car2" depart="72.72" fromTaz="cluster_2664674491_655375287_655375288" toTaz="cluster_9383263990_9383263991_9383263992_9383263993">
        <route edges="244450512#4 244450512#5 593844221#0 49695736#0 182334379#0 238526531#0 506322848#0"/>
    </vehicle>
    <vehicle id="Flow14.33" type="Car14" depart="72.77" fromTaz="655375241" toTaz="655375241">
        <route edges="-1334905223#2 263217603#0 506322840#0"/>
    </vehicle>
    <vehicle id="Flow7.35" type="Car7" depart="72.91" fromTaz="cluster619136880_619136881_cluster_4510442270_5296993511_5296993513_619136931_#1more" toTaz="cluster655375336_end_0_655375336_end_1_655375336_end_10_655375336_end_11_#8more">
        <route edges="910567294 353392316#0 288135626#0 1068234499#0 182334378#0"/>
    </vehicle>
    <vehicle id="Flow6.37" type="Car6" depart="73.00" fromTaz="cluster_5372642442_631668976_631668981_631669076" toTaz="cluster619136899_619136900_cluster_619136929_619136942">
        <route edges="506322851#0 506322851#2 506322853#0"/>
    </vehicle>
    <vehicle id="Flow5.28" type="Car5" depart="73.02" fromTaz="cluster_623980090_623980094" toTaz="622618112">
        <route edges="196961215#2 288878926#0 593849715 49073272#0"/>
    </vehicle>
    <vehicle id="Flow1.21" type="Car1" depart="73.25" fromTaz="cluster619136899_619136900_cluster_619136929_619136942" toTaz="cluster619136880_619136881_cluster_4510442270_5296993511_5296993513_619136931_#1more">
        <route edges="668037874"/>
    </vehicle>
    <vehicle id="Flow13.19" type="Car13" depart="74.02" fromTaz="cluster619136899_619136900_cluster_619136929_619136942" toTaz="cluster619136880_619136881_cluster_4510442270_5296993511_5296993513_619136931_#1more">
        <route edges="668037874"/>
    </vehicle>
    <vehicle id="Flow9.31" type="Car9" depart="74.40" fromTaz="622618230" toTaz="655375232">
        <route edges="593849715 -593847704#2 -593847701"/>
    </vehicle>
    <vehicle id="Flow14.34" type="Car14" depart="74.97" fromTaz="655375241" toTaz="655375241">
        <route edges="-1334905223#2 263217603#0 506322840#0"/>
    </vehicle>
    <vehicle id="Flow6.38" type="Car6" depart="74.97" fromTaz="cluster_5372642442_631668976_631668981_631669076" toTaz="cluster619136899_619136900_cluster_619136929_619136942">
        <route edges="506322851#0 506322851#2 506322853#0"/>
    </vehicle>
    <vehicle id="Flow8.27" type="Car8" depart="74.98" fromTaz="cluster_5372642442_631668976_631668981_631669076" toTaz="cluster_5372642442_631668976_631668981_631669076">
        <route edges="238526531#0 506322848#0 506322844#0 -300077497#8 -300077497#5 182334379#0"/>
    </vehicle>
    <vehicle id="Flow0.19" type="Car0" depart="74.99" fromTaz="cluster_623980090_623980094" toTaz="cluster619136899_619136900_cluster_619136929_619136942">
        <route edges="196961215#2 288878926#0 593849715 49073272#0 49073272#1 49073272#3 49073272#4"/>
    </vehicle>
    <vehicle id="Flow7.36" type="Car7" depart="74.99" fromTaz="cluster619136880_619136881_cluster_4510442270_5296993511_5296993513_619136931_#1more" toTaz="cluster655375336_end_0_655375336_end_1_655375336_end_10_655375336_end_11_#8more">
        <route edges="910567294 353392316#0 288135626#0 1068234499#0 182334378#0"/>
    </vehicle>
    <vehicle id="Flow11.10" type="Car11" depart="75.00" fromTaz="cluster_623980147_623980152" toTaz="622618230">
        <route edges="288878926#0"/>
    </vehicle>
[...]
        <route edges="668037874"/>
    </vehicle>
    <vehicle id="Flow5.107" type="Car5" depart="279.06" fromTaz="cluster_623980090_623980094" toTaz="622618112">
        <route edges="196961215#2 288878926#0 593849715 49073272#0"/>
    </vehicle>
    <vehicle id="Flow7.134" type="Car7" depart="279.12" fromTaz="cluster619136880_619136881_cluster_4510442270_5296993511_5296993513_619136931_#1more" toTaz="cluster655375336_end_0_655375336_end_1_655375336_end_10_655375336_end_11_#8more">
        <route edges="910567294 353392316#0 288135626#0 1068234499#0 182334378#0"/>
    </vehicle>
    <vehicle id="Flow3.54" type="Car3" depart="279.29" fromTaz="cluster_3431431575_4777363357_655375231_6982059025" toTaz="cluster_2528018119_655375236">
        <route edges="51362429#0 593847701 593847705 593847703#0"/>
    </vehicle>
    <vehicle id="Flow12.112" type="Car12" depart="280.00" fromTaz="cluster_9383263990_9383263991_9383263992_9383263993" toTaz="cluster_2038168688_655375573">
        <route edges="506322842#0"/>
    </vehicle>
    <vehicle id="Flow14.127" type="Car14" depart="280.04" fromTaz="655375241" toTaz="655375241">
        <route edges="-1334905223#2 263217603#0 506322840#0"/>
    </vehicle>
    <vehicle id="Flow6.142" type="Car6" depart="280.17" fromTaz="cluster_5372642442_631668976_631668981_631669076" toTaz="cluster619136899_619136900_cluster_619136929_619136942">
        <route edges="506322851#0 506322851#2 506322853#0"/>
    </vehicle>
    <vehicle id="Flow0.71" type="Car0" depart="280.24" fromTaz="cluster_623980090_623980094" toTaz="cluster619136899_619136900_cluster_619136929_619136942">
        <route edges="196961215#2 288878926#0 593849715 49073272#0 49073272#1 49073272#3 49073272#4"/>
    </vehicle>
    <vehicle id="Flow8.101" type="Car8" depart="280.48" fromTaz="cluster_5372642442_631668976_631668981_631669076" toTaz="cluster_5372642442_631668976_631668981_631669076">
        <route edges="238526531#0 506322848#0 506322844#0 -300077497#8 35274074#0 506322846#0 506322846#2"/>
    </vehicle>
    <vehicle id="Flow13.72" type="Car13" depart="280.51" fromTaz="cluster619136899_619136900_cluster_619136929_619136942" toTaz="cluster619136880_619136881_cluster_4510442270_5296993511_5296993513_619136931_#1more">
        <route edges="668037874"/>
    </vehicle>
    <vehicle id="Flow9.117" type="Car9" depart="280.80" fromTaz="622618230" toTaz="655375232">
        <route edges="593849711#0 593849711#2"/>
    </vehicle>
    <vehicle id="Flow7.135" type="Car7" depart="281.21" fromTaz="cluster619136880_619136881_cluster_4510442270_5296993511_5296993513_619136931_#1more" toTaz="cluster655375336_end_0_655375336_end_1_655375336_end_10_655375336_end_11_#8more">
        <route edges="196961377#0 196961377#3 593849721 -593849724 -593847704#2 E0"/>
    </vehicle>
    <vehicle id="Flow5.108" type="Car5" depart="281.66" fromTaz="cluster_623980090_623980094" toTaz="622618112">
        <route edges="196961215#2 288878926#0 593849715 49073272#0"/>
    </vehicle>
    <vehicle id="Flow6.143" type="Car6" depart="282.14" fromTaz="cluster_5372642442_631668976_631668981_631669076" toTaz="cluster619136899_619136900_cluster_619136929_619136942">
        <route edges="506322851#0 506322851#2 506322853#0"/>
    </vehicle>
    <vehicle id="Flow14.128" type="Car14" depart="282.24" fromTaz="655375241" toTaz="655375241">
        <route edges="-1334905223#2 263217603#0 506322840#0"/>
    </vehicle>
    <vehicle id="Flow12.113" type="Car12" depart="282.50" fromTaz="cluster_9383263990_9383263991_9383263992_9383263993" toTaz="cluster_2038168688_655375573">
        <route edges="506322842#0"/>
    </vehicle>
    <vehicle id="Flow1.81" type="Car1" depart="282.53" fromTaz="cluster619136899_619136900_cluster_619136929_619136942" toTaz="cluster619136880_619136881_cluster_4510442270_5296993511_5296993513_619136931_#1more">
        <route edges="668037874"/>
    </vehicle>
    <vehicle id="Flow9.118" type="Car9" depart="283.20" fromTaz="622618230" toTaz="655375232">
        <route edges="593849711#0 593849711#2"/>
    </vehicle>
    <vehicle id="Flow7.136" type="Car7" depart="283.29" fromTaz="cluster619136880_619136881_cluster_4510442270_5296993511_5296993513_619136931_#1more" toTaz="cluster655375336_end_0_655375336_end_1_655375336_end_10_655375336_end_11_#8more">
        <route edges="196961377#0 196961377#3 593849721 -593849724 -593847704#2 E0"/>
    </vehicle>
    <vehicle id="Flow6.144" type="Car6" depart="284.11" fromTaz="cluster_5372642442_631668976_631668981_631669076" toTaz="cluster619136899_619136900_cluster_619136929_619136942">
        <route edges="506322851#0 506322851#2 506322853#0"/>
    </vehicle>
    <vehicle id="Flow0.72" type="Car0" depart="284.18" fromTaz="cluster_623980090_623980094" toTaz="cluster619136899_619136900_cluster_619136929_619136942">
        <route edges="196961215#2 288878926#0 593849715 49073272#0 49073272#1 49073272#3 49073272#4"/>
    </vehicle>
    <vehicle id="Flow5.109" type="Car5" depart="284.27" fromTaz="cluster_623980090_623980094" toTaz="622618112">
        <route edges="196961215#2 288878926#0 593849715 49073272#0"/>
    </vehicle>
    <vehicle id="Flow13.73" type="Car13" depart="284.41" fromTaz="cluster619136899_619136900_cluster_619136929_619136942" toTaz="cluster619136880_619136881_cluster_4510442270_5296993511_5296993513_619136931_#1more">
        <route edges="668037874"/>
    </vehicle>
    <vehicle id="Flow14.129" type="Car14" depart="284.45" fromTaz="655375241" toTaz="655375241">
        <route edges="-1334905223#2 263217603#0 506322840#0"/>
    </vehicle>
    <vehicle id="Flow3.55" type="Car3" depart="284.46" fromTaz="cluster_3431431575_4777363357_655375231_6982059025" toTaz="cluster_2528018119_655375236">
        <route edges="51362429#0 593847701 593847705 593847703#0"/>
    </vehicle>
    <vehicle id="Flow11.38" type="Car11" depart="285.00" fromTaz="cluster_623980147_623980152" toTaz="622618230">
        <route edges="288878926#0"/>
    </vehicle>
    <vehicle id="Flow12.114" type="Car12" depart="285.00" fromTaz="cluster_9383263990_9383263991_9383263992_9383263993" toTaz="cluster_2038168688_655375573">
        <route edges="506322842#0"/>
    </vehicle>
    <vehicle id="Flow7.137" type="Car7" depart="285.37" fromTaz="cluster619136880_619136881_cluster_4510442270_5296993511_5296993513_619136931_#1more" toTaz="cluster655375336_end_0_655375336_end_1_655375336_end_10_655375336_end_11_#8more">
        <route edges="196961377#0 196961377#3 593849721 -593849724 -593847704#2 593847705 593847703#0 182334378#0"/>
    </vehicle>
    <vehicle id="Flow9.119" type="Car9" depart="285.60" fromTaz="622618230" toTaz="655375232">
        <route edges="593849711#0 593849711#2"/>
    </vehicle>
    <vehicle id="Flow1.82" type="Car1" depart="286.02" fromTaz="cluster619136899_619136900_cluster_619136929_619136942" toTaz="cluster619136880_619136881_cluster_4510442270_5296993511_5296993513_619136931_#1more">
        <route edges="668037874"/>
    </vehicle>
    <vehicle id="Flow8.103" type="Car8" depart="286.03" fromTaz="cluster_5372642442_631668976_631668981_631669076" toTaz="cluster_5372642442_631668976_631668981_631669076">
        <route edges="288135626#0 1068234499#0 300077497#0 35274074#0 506322846#0 506322846#2"/>
    </vehicle>
    <vehicle id="Flow6.145" type="Car6" depart="286.09" fromTaz="cluster_5372642442_631668976_631668981_631669076" toTaz="cluster619136899_619136900_cluster_619136929_619136942">
        <route edges="506322851#0 506322851#2 506322853#0"/>
    </vehicle>
    <vehicle id="Flow14.130" type="Car14" depart="286.65" fromTaz="655375241" toTaz="655375241">
        <route edges="-1334905223#2 263217603#0 506322840#0"/>
    </vehicle>
    <vehicle id="Flow5.110" type="Car5" depart="286.88" fromTaz="cluster_623980090_623980094" toTaz="622618112">
        <route edges="196961215#2 288878926#0 593849715 49073272#0"/>
    </vehicle>
    <vehicle id="Flow7.138" type="Car7" depart="287.45" fromTaz="cluster619136880_619136881_cluster_4510442270_5296993511_5296993513_619136931_#1more" toTaz="cluster655375336_end_0_655375336_end_1_655375336_end_10_655375336_end_11_#8more">
        <route edges="196961377#0 196961377#3 593849721 -593849724 -593847704#2 593847705 593847703#0 182334378#0"/>
    </vehicle>
    <vehicle id="Flow12.115" type="Car12" depart="287.50" fromTaz="cluster_9383263990_9383263991_9383263992_9383263993" toTaz="cluster_2038168688_655375573">
        <route edges="506322842#0"/>
    </vehicle>
    <vehicle id="Flow9.120" type="Car9" depart="288.00" fromTaz="622618230" toTaz="655375232">
        <route edges="593849711#0 593849711#2"/>
    </vehicle>
    <vehicle id="Flow6.146" type="Car6" depart="288.06" fromTaz="cluster_5372642442_631668976_631668981_631669076" toTaz="cluster619136899_619136900_cluster_619136929_619136942">
        <route edges="506322851#0 506322851#2 506322853#0"/>
    </vehicle>
    <vehicle id="Flow0.73" type="Car0" depart="288.13" fromTaz="cluster_623980090_623980094" toTaz="cluster619136899_619136900_cluster_619136929_619136942">
        <route edges="196961215#2 288878926#0 593849715 49073272#0 49073272#1 49073272#3 49073272#4"/>
    </vehicle>
    <vehicle id="Flow13.74" type="Car13" depart="288.30" fromTaz="cluster619136899_619136900_cluster_619136929_619136942" toTaz="cluster619136880_619136881_cluster_4510442270_5296993511_5296993513_619136931_#1more">
        <route edges="668037874"/>
    </vehicle>
    <vehicle id="Flow8.104" type="Car8" depart="288.81" fromTaz="cluster_5372642442_631668976_631668981_631669076" toTaz="cluster_5372642442_631668976_631668981_631669076">
        <route edges="288135626#0 1068234499#0 300077497#0 35274074#0 506322846#0 506322846#2"/>
    </vehicle>
    <vehicle id="Flow14.131" type="Car14" depart="288.86" fromTaz="655375241" toTaz="655375241">
        <route edges="-1334905223#2 263217603#0 506322840#0"/>
    </vehicle>
    <vehicle id="Flow2.159" type="Car2" depart="289.06" fromTaz="cluster_2664674491_655375287_655375288" toTaz="cluster_9383263990_9383263991_9383263992_9383263993">
        <route edges="244450512#4 244450512#5 593844221#0 49695736#0 182334379#0 238526531#0 506322848#0"/>
    </vehicle>
    <vehicle id="Flow5.111" type="Car5" depart="289.49" fromTaz="cluster_623980090_623980094" toTaz="622618112">
        <route edges="196961215#2 288878926#0 593849715 49073272#0"/>
    </vehicle>
    <vehicle id="Flow1.83" type="Car1" depart="289.50" fromTaz="cluster619136899_619136900_cluster_619136929_619136942" toTaz="cluster619136880_619136881_cluster_4510442270_5296993511_5296993513_619136931_#1more">
        <route edges="668037874"/>
    </vehicle>
    <vehicle id="Flow7.139" type="Car7" depart="289.54" fromTaz="cluster619136880_619136881_cluster_4510442270_5296993511_5296993513_619136931_#1more" toTaz="cluster655375336_end_0_655375336_end_1_655375336_end_10_655375336_end_11_#8more">
        <route edges="910567294 353392316#0 288135626#0 1068234499#0 182334378#0"/>
    </vehicle>
    <vehicle id="Flow3.56" type="Car3" depart="289.63" fromTaz="cluster_3431431575_4777363357_655375231_6982059025" toTaz="cluster_2528018119_655375236">
        <route edges="51362429#0 593847701 593847705 593847703#0"/>
    </vehicle>
    <vehicle id="Flow12.116" type="Car12" depart="290.00" fromTaz="cluster_9383263990_9383263991_9383263992_9383263993" toTaz="cluster_2038168688_655375573">
        <route edges="506322842#0"/>
    </vehicle>
    <vehicle id="Flow6.147" type="Car6" depart="290.03" fromTaz="cluster_5372642442_631668976_631668981_631669076" toTaz="cluster619136899_619136900_cluster_619136929_619136942">
        <route edges="506322851#0 506322851#2 506322853#0"/>
    </vehicle>
    <vehicle id="Flow9.121" type="Car9" depart="290.40" fromTaz="622618230" toTaz="655375232">
        <route edges="593849715 -593847704#2 -593847701"/>
    </vehicle>
    <vehicle id="Flow14.132" type="Car14" depart="291.06" fromTaz="655375241" toTaz="655375241">
        <route edges="-1334905223#2 263217603#0 506322840#0"/>
    </vehicle>
    <vehicle id="Flow8.105" type="Car8" depart="291.59" fromTaz="cluster_5372642442_631668976_631668981_631669076" toTaz="cluster_5372642442_631668976_631668981_631669076">
        <route edges="288135626#0 1068234499#0 182334378#0 -E0 593847705 593847703#0 182334379#0"/>
    </vehicle>
    <vehicle id="Flow7.140" type="Car7" depart="291.62" fromTaz="cluster619136880_619136881_cluster_4510442270_5296993511_5296993513_619136931_#1more" toTaz="cluster655375336_end_0_655375336_end_1_655375336_end_10_655375336_end_11_#8more">
        <route edges="196961377#0 196961377#3 593849721 -593849724 -593847704#2 E0"/>
    </vehicle>
    <vehicle id="Flow6.148" type="Car6" depart="292.00" fromTaz="cluster_5372642442_631668976_631668981_631669076" toTaz="cluster619136899_619136900_cluster_619136929_619136942">
        <route edges="506322851#0 506322851#2 506322853#0"/>
    </vehicle>
    <vehicle id="Flow0.74" type="Car0" depart="292.08" fromTaz="cluster_623980090_623980094" toTaz="cluster619136899_619136900_cluster_619136929_619136942">
        <route edges="196961215#2 288878926#0 593849715 49073272#0 49073272#1 49073272#3 49073272#4"/>
    </vehicle>
    <vehicle id="Flow5.112" type="Car5" depart="292.10" fromTaz="cluster_623980090_623980094" toTaz="622618112">
        <route edges="196961215#2 288878926#0 593849715 49073272#0"/>
    </vehicle>
    <vehicle id="Flow13.75" type="Car13" depart="292.20" fromTaz="cluster619136899_619136900_cluster_619136929_619136942" toTaz="cluster619136880_619136881_cluster_4510442270_5296993511_5296993513_619136931_#1more">
        <route edges="668037874"/>
    </vehicle>
    <vehicle id="Flow11.39" type="Car11" depart="292.50" fromTaz="cluster_623980147_623980152" toTaz="622618230">
        <route edges="288878926#0"/>
    </vehicle>
    <vehicle id="Flow12.117" type="Car12" depart="292.50" fromTaz="cluster_9383263990_9383263991_9383263992_9383263993" toTaz="cluster_2038168688_655375573">
        <route edges="506322842#0"/>
    </vehicle>
    <vehicle id="Flow2.161" type="Car2" depart="292.70" fromTaz="cluster_2664674491_655375287_655375288" toTaz="cluster_9383263990_9383263991_9383263992_9383263993">
        <route edges="244450512#4 244450512#5 593844221#0 49695736#0 182334379#0 238526531#0 506322848#0"/>
    </vehicle>
    <vehicle id="Flow9.122" type="Car9" depart="292.80" fromTaz="622618230" toTaz="655375232">
        <route edges="593849715 -593847704#2 -593847701"/>
    </vehicle>
    <vehicle id="Flow1.84" type="Car1" depart="292.99" fromTaz="cluster619136899_619136900_cluster_619136929_619136942" toTaz="cluster619136880_619136881_cluster_4510442270_5296993511_5296993513_619136931_#1more">
        <route edges="668037874"/>
    </vehicle>
    <vehicle id="Flow14.133" type="Car14" depart="293.27" fromTaz="655375241" toTaz="655375241">
        <route edges="-1334905223#2 263217603#0 506322840#0"/>
    </vehicle>
    <vehicle id="Flow7.141" type="Car7" depart="293.70" fromTaz="cluster619136880_619136881_cluster_4510442270_5296993511_5296993513_619136931_#1more" toTaz="cluster655375336_end_0_655375336_end_1_655375336_end_10_655375336_end_11_#8more">
        <route edges="196961377#0 196961377#3 593849721 49073274 593852346 593849711#0 593849711#2 593847701 E0"/>
    </vehicle>
    <vehicle id="Flow6.149" type="Car6" depart="293.98" fromTaz="cluster_5372642442_631668976_631668981_631669076" toTaz="cluster619136899_619136900_cluster_619136929_619136942">
        <route edges="506322851#0 506322851#2 506322853#0"/>
    </vehicle>
    <vehicle id="Flow8.106" type="Car8" depart="294.36" fromTaz="cluster_5372642442_631668976_631668981_631669076" toTaz="cluster_5372642442_631668976_631668981_631669076">
        <route edges="238526531#0 506322848#0 506322844#0 -300077497#8 35274074#0 506322846#0 506322846#2"/>
    </vehicle>
    <vehicle id="Flow2.162" type="Car2" depart="294.52" fromTaz="cluster_2664674491_655375287_655375288" toTaz="cluster_9383263990_9383263991_9383263992_9383263993">
        <route edges="244450512#4 244450512#5 593844221#0 49695736#0 182334379#0 238526531#0 506322848#0"/>
    </vehicle>
    <vehicle id="Flow5.113" type="Car5" depart="294.70" fromTaz="cluster_623980090_623980094" toTaz="622618112">
        <route edges="196961215#2 288878926#0 593849715 49073272#0"/>
    </vehicle>
    <vehicle id="Flow3.57" type="Car3" depart="294.80" fromTaz="cluster_3431431575_4777363357_655375231_6982059025" toTaz="cluster_2528018119_655375236">
        <route edges="484988952#0 -51362430 1068440001 1239087513 593844221#0 49695736#0"/>
    </vehicle>
    <vehicle id="Flow12.118" type="Car12" depart="295.00" fromTaz="cluster_9383263990_9383263991_9383263992_9383263993" toTaz="cluster_2038168688_655375573">
        <route edges="506322842#0"/>
    </vehicle>
    <vehicle id="Flow9.123" type="Car9" depart="295.20" fromTaz="622618230" toTaz="655375232">
        <route edges="593849715 -593847704#2 -593847701"/>
    </vehicle>
    <vehicle id="Flow14.134" type="Car14" depart="295.47" fromTaz="655375241" toTaz="655375241">
        <route edges="-1334905223#2 263217603#0 506322840#0"/>
    </vehicle>
    <vehicle id="Flow7.142" type="Car7" depart="295.79" fromTaz="cluster619136880_619136881_cluster_4510442270_5296993511_5296993513_619136931_#1more" toTaz="cluster655375336_end_0_655375336_end_1_655375336_end_10_655375336_end_11_#8more">
        <route edges="196961377#0 196961377#3 593849721 49073274 593852346 593849711#0 593849711#2 593847701 593847705 593847703#0 182334378#0"/>
    </vehicle>
    <vehicle id="Flow6.150" type="Car6" depart="295.95" fromTaz="cluster_5372642442_631668976_631668981_631669076" toTaz="cluster619136899_619136900_cluster_619136929_619136942">
        <route edges="506322851#0 506322851#2 506322853#0"/>
    </vehicle>
    <vehicle id="Flow0.75" type="Car0" depart="296.03" fromTaz="cluster_623980090_623980094" toTaz="cluster619136899_619136900_cluster_619136929_619136942">
        <route edges="196961215#2 288878926#0 593849715 49073272#0 49073272#1 49073272#3 49073272#4"/>
    </vehicle>
    <vehicle id="Flow13.76" type="Car13" depart="296.10" fromTaz="cluster619136899_619136900_cluster_619136929_619136942" toTaz="cluster619136880_619136881_cluster_4510442270_5296993511_5296993513_619136931_#1more">
        <route edges="668037874"/>
    </vehicle>
    <vehicle id="Flow1.85" type="Car1" depart="296.48" fromTaz="cluster619136899_619136900_cluster_619136929_619136942" toTaz="cluster619136880_619136881_cluster_4510442270_5296993511_5296993513_619136931_#1more">
        <route edges="668037874"/>
    </vehicle>
    <vehicle id="Flow5.114" type="Car5" depart="297.31" fromTaz="cluster_623980090_623980094" toTaz="622618112">
        <route edges="196961215#2 288878926#0 593849715 49073272#0"/>
    </vehicle>
    <vehicle id="Flow12.119" type="Car12" depart="297.50" fromTaz="cluster_9383263990_9383263991_9383263992_9383263993" toTaz="cluster_2038168688_655375573">
        <route edges="506322842#0"/>
    </vehicle>
    <vehicle id="Flow9.124" type="Car9" depart="297.60" fromTaz="622618230" toTaz="655375232">
        <route edges="593849711#0 593849711#2"/>
    </vehicle>
    <vehicle id="Flow14.135" type="Car14" depart="297.68" fromTaz="655375241" toTaz="655375241">
        <route edges="-1334905223#2 263217603#0 506322840#0"/>
    </vehicle>
    <vehicle id="Flow7.143" type="Car7" depart="297.87" fromTaz="cluster619136880_619136881_cluster_4510442270_5296993511_5296993513_619136931_#1more" toTaz="cluster655375336_end_0_655375336_end_1_655375336_end_10_655375336_end_11_#8more">
        <route edges="196961377#0 196961377#3 593849721 49073274 593852346 593849711#0 593849711#2 1068440006#0"/>
    </vehicle>
    <vehicle id="Flow6.151" type="Car6" depart="297.92" fromTaz="cluster_5372642442_631668976_631668981_631669076" toTaz="cluster619136899_619136900_cluster_619136929_619136942">
        <route edges="506322851#0 506322851#2 506322853#0"/>
    </vehicle>
</routes>
